<?xml version="1.0" encoding="UTF-8"?>

<!-- generated on Wed Oct 30 14:47:27 2019 by Eclipse SUMO duarouter Version v1_2_0+0622-cbc8645
<configuration xmlns:xsi="http://www.w3.org/2001/XMLSchema-instance" xsi:noNamespaceSchemaLocation="http://sumo.dlr.de/xsd/duarouterConfiguration.xsd">

    <input>
        <net-file value="osm.net.xml"/>
        <route-files value="osm.bus.trips.xml"/>
    </input>

    <output>
        <output-file value="osm.bus.trips.xml.tmp"/>
        <write-trips value="true"/>
    </output>

    <time>
        <begin value="0"/>
        <end value="86400.0"/>
    </time>

    <report>
        <no-warnings value="true"/>
        <ignore-errors value="true"/>
        <no-step-log value="true"/>
    </report>

</configuration>
-->

<routes xmlns:xsi="http://www.w3.org/2001/XMLSchema-instance" xsi:noNamespaceSchemaLocation="http://sumo.dlr.de/xsd/routes_file.xsd">
    <vType id="bus_bus" vClass="bus"/>
    <trip id="bus0" type="bus_bus" depart="0.00" departLane="best" departSpeed="max" from="435546424#0" to="118793923#4"/>
    <trip id="bus1" type="bus_bus" depart="161.50" departLane="best" from="24295136#14" to="293115460#18"/>
    <trip id="bus3" type="bus_bus" depart="484.49" departLane="best" from="360771086#20" to="327607339#0"/>
    <trip id="bus4" type="bus_bus" depart="645.98" departLane="best" from="496739504#5" to="24295254#6"/>
    <trip id="bus5" type="bus_bus" depart="807.48" departLane="best" from="118793923#0" to="118793923#8"/>
    <trip id="bus6" type="bus_bus" depart="968.97" departLane="best" departSpeed="max" from="401494444#0" to="320601926#1"/>
    <trip id="bus7" type="bus_bus" depart="1130.47" departLane="best" from="360771086#21" to="329505240#4"/>
    <trip id="bus8" type="bus_bus" depart="1291.96" departLane="best" from="315196302#1" to="571354729"/>
    <trip id="bus10" type="bus_bus" depart="1614.95" departLane="best" departSpeed="max" from="396425746" to="321544196#3"/>
    <trip id="bus11" type="bus_bus" depart="1776.45" departLane="best" from="401494444#2" to="320249039#0"/>
    <trip id="bus12" type="bus_bus" depart="1937.94" departLane="best" from="327607339#1" to="111940154#2"/>
    <trip id="bus13" type="bus_bus" depart="2099.44" departLane="best" from="118793923#3" to="24295139#4"/>
    <trip id="bus14" type="bus_bus" depart="2260.93" departLane="best" from="324601502#1" to="24305273#5"/>
    <trip id="bus15" type="bus_bus" depart="2422.43" departLane="best" from="24305365#4" to="24295097#1"/>
    <trip id="bus16" type="bus_bus" depart="2583.93" departLane="best" from="156115617#0" to="329505240#4"/>
    <trip id="bus17" type="bus_bus" depart="2745.42" departLane="best" from="633508213#5" to="321572180#8"/>
    <trip id="bus18" type="bus_bus" depart="2906.92" departLane="best" from="317137449#12" to="326569902#4"/>
    <trip id="bus19" type="bus_bus" depart="3068.41" departLane="best" from="24295136#11" to="522768610#5"/>
    <trip id="bus20" type="bus_bus" depart="3229.91" departLane="best" departSpeed="max" from="435541876#0" to="24295246#4"/>
    <trip id="bus21" type="bus_bus" depart="3391.40" departLane="best" departSpeed="max" from="325447816#0" to="24305294#0"/>
    <trip id="bus22" type="bus_bus" depart="3552.90" departLane="best" departSpeed="max" from="436277095#0" to="284925148#1"/>
    <trip id="bus23" type="bus_bus" depart="3714.39" departLane="best" from="646591409" to="293115460#3"/>
    <trip id="bus24" type="bus_bus" depart="3875.89" departLane="best" from="360771086#10" to="24305370#1"/>
    <trip id="bus25" type="bus_bus" depart="4037.38" departLane="best" from="118793918#3" to="24305286#10"/>
    <trip id="bus26" type="bus_bus" depart="4198.88" departLane="best" from="646591409" to="302109830#2"/>
    <trip id="bus27" type="bus_bus" depart="4360.37" departLane="best" from="522768610#4" to="401494444#3"/>
    <trip id="bus28" type="bus_bus" depart="4521.87" departLane="best" departSpeed="max" from="-24267146#1" to="329505240#0"/>
    <trip id="bus29" type="bus_bus" depart="4683.36" departLane="best" from="326569902#5" to="314360433#4"/>
    <trip id="bus30" type="bus_bus" depart="4844.86" departLane="best" from="24295246#0" to="321572180#8"/>
    <trip id="bus31" type="bus_bus" depart="5006.36" departLane="best" from="129281458" to="279653481#1"/>
    <trip id="bus32" type="bus_bus" depart="5167.85" departLane="best" from="293115460#15" to="522768610#8"/>
    <trip id="bus33" type="bus_bus" depart="5329.35" departLane="best" departSpeed="max" from="435541876#0" to="24295136#4"/>
    <trip id="bus34" type="bus_bus" depart="5490.84" departLane="best" departSpeed="max" from="436277095#0" to="435541876#1"/>
    <trip id="bus35" type="bus_bus" depart="5652.34" departLane="best" from="24305223#1" to="321572180#8"/>
    <trip id="bus36" type="bus_bus" depart="5813.83" departLane="best" from="321544196#3" to="156115617#1"/>
    <trip id="bus37" type="bus_bus" depart="5975.33" departLane="best" departSpeed="max" from="360771086#0" to="314360433#1"/>
    <trip id="bus38" type="bus_bus" depart="6136.82" departLane="best" from="-133242880#1" to="24295250#1"/>
    <trip id="bus39" type="bus_bus" depart="6298.32" departLane="best" departSpeed="max" from="-24295097#1" to="496739504#5"/>
    <trip id="bus40" type="bus_bus" depart="6459.81" departLane="best" from="24305273#1" to="118793920"/>
    <trip id="bus41" type="bus_bus" depart="6621.31" departLane="best" departSpeed="max" from="435541876#0" to="522768610#7"/>
    <trip id="bus42" type="bus_bus" depart="6782.80" departLane="best" from="118793921#4" to="293115460#0"/>
    <trip id="bus43" type="bus_bus" depart="6944.30" departLane="best" from="344084913#8" to="152762229#1"/>
    <trip id="bus44" type="bus_bus" depart="7105.79" departLane="best" departSpeed="max" from="284927032#0" to="24295097#1"/>
    <trip id="bus45" type="bus_bus" depart="7267.29" departLane="best" departSpeed="max" from="317137449#0" to="329505240#4"/>
    <trip id="bus46" type="bus_bus" depart="7428.79" departLane="best" departSpeed="max" from="24295123" to="24295246#2"/>
    <trip id="bus47" type="bus_bus" depart="7590.28" departLane="best" from="633508215#3" to="324601502#6"/>
    <trip id="bus48" type="bus_bus" depart="7751.78" departLane="best" from="24295136#2" to="24295100#1"/>
    <trip id="bus49" type="bus_bus" depart="7913.27" departLane="best" from="118793919#3" to="321572180#4"/>
    <trip id="bus50" type="bus_bus" depart="8074.77" departLane="best" from="24295136#8" to="324924047#2"/>
    <trip id="bus51" type="bus_bus" depart="8236.26" departLane="best" from="436277095#9" to="317137449#7"/>
    <trip id="bus52" type="bus_bus" depart="8397.76" departLane="best" from="293115460#9" to="344372307#1"/>
    <trip id="bus53" type="bus_bus" depart="8559.25" departLane="best" departSpeed="max" from="284927032#0" to="284927029#2"/>
    <trip id="bus54" type="bus_bus" depart="8720.75" departLane="best" from="329505240#5" to="326569837#1"/>
    <trip id="bus55" type="bus_bus" depart="8882.24" departLane="best" from="571354729" to="118793923#8"/>
    <trip id="bus56" type="bus_bus" depart="9043.74" departLane="best" from="279653481#1" to="24295254#6"/>
    <trip id="bus57" type="bus_bus" depart="9205.23" departLane="best" from="401494444#2" to="24295136#2"/>
    <trip id="bus58" type="bus_bus" depart="9366.73" departLane="best" from="24267146#0" to="284925148#0"/>
    <trip id="bus59" type="bus_bus" depart="9528.22" departLane="best" from="284927029#1" to="24295139#4"/>
    <trip id="bus60" type="bus_bus" depart="9689.72" departLane="best" from="24295139#4" to="496739504#3"/>
    <trip id="bus61" type="bus_bus" depart="9851.21" departLane="best" from="317137449#1" to="118793918#3"/>
    <trip id="bus63" type="bus_bus" depart="10174.21" departLane="best" from="522768610#3" to="496739504#4"/>
    <trip id="bus64" type="bus_bus" depart="10335.70" departLane="best" departSpeed="max" from="401494444#0" to="156115617#7"/>
    <trip id="bus65" type="bus_bus" depart="10497.20" departLane="best" departSpeed="max" from="312662578#0" to="24295097#1"/>
    <trip id="bus66" type="bus_bus" depart="10658.69" departLane="best" departSpeed="max" from="279653481#0" to="118793920"/>
    <trip id="bus67" type="bus_bus" depart="10820.19" departLane="best" from="24305370#1" to="633508215#4"/>
    <trip id="bus68" type="bus_bus" depart="10981.68" departLane="best" from="24295147#1" to="344372307#0"/>
    <trip id="bus69" type="bus_bus" depart="11143.18" departLane="best" from="293115460#16" to="24305370#1"/>
    <trip id="bus70" type="bus_bus" depart="11304.67" departLane="best" from="496739504#5" to="633508215#4"/>
    <trip id="bus71" type="bus_bus" depart="11466.17" departLane="best" from="317137449#12" to="329505082"/>
    <trip id="bus72" type="bus_bus" depart="11627.66" departLane="best" from="152762229#2" to="24295146#0"/>
    <trip id="bus73" type="bus_bus" depart="11789.16" departLane="best" from="522768610#3" to="320249039#2"/>
    <trip id="bus74" type="bus_bus" depart="11950.65" departLane="best" departSpeed="max" from="317137449#0" to="344084911"/>
    <trip id="bus75" type="bus_bus" depart="12112.15" departLane="best" from="111940154#1" to="320249068#2"/>
    <trip id="bus76" type="bus_bus" depart="12273.64" departLane="best" departSpeed="max" from="314360433#0" to="401494444#15"/>
    <trip id="bus77" type="bus_bus" depart="12435.14" departLane="best" from="152762229#4" to="522768611#0"/>
    <trip id="bus78" type="bus_bus" depart="12596.64" departLane="best" from="118793921#2" to="172580997"/>
    <trip id="bus79" type="bus_bus" depart="12758.13" departLane="best" from="321396548#0" to="321544196#3"/>
    <trip id="bus80" type="bus_bus" depart="12919.63" departLane="best" departSpeed="max" from="24295123" to="327607512#0"/>
    <trip id="bus81" type="bus_bus" depart="13081.12" departLane="best" from="24305273#5" to="344084911"/>
    <trip id="bus82" type="bus_bus" depart="13242.62" departLane="best" from="118793920" to="24295097#1"/>
    <trip id="bus84" type="bus_bus" depart="13565.61" departLane="best" from="24305365#4" to="156115617#3"/>
    <trip id="bus85" type="bus_bus" depart="13727.10" departLane="best" departSpeed="max" from="396425746" to="327607511#0"/>
    <trip id="bus86" type="bus_bus" depart="13888.60" departLane="best" from="321544196#4" to="633508215#4"/>
    <trip id="bus87" type="bus_bus" depart="14050.09" departLane="best" departSpeed="max" from="325447816#0" to="-133242880#0"/>
    <trip id="bus88" type="bus_bus" depart="14211.59" departLane="best" from="360771086#6" to="24295146#2"/>
    <trip id="bus89" type="bus_bus" depart="14373.08" departLane="best" departSpeed="max" from="325447816#0" to="522768610#3"/>
    <trip id="bus90" type="bus_bus" depart="14534.58" departLane="best" departSpeed="max" from="151073587#0" to="151181510#1"/>
    <trip id="bus92" type="bus_bus" depart="14857.57" departLane="best" from="329505240#0" to="24295097#0"/>
    <trip id="bus93" type="bus_bus" depart="15019.07" departLane="best" departSpeed="max" from="312662578#0" to="436287845#0"/>
    <trip id="bus94" type="bus_bus" depart="15180.56" departLane="best" departSpeed="max" from="401494444#0" to="118793923#7"/>
    <trip id="bus95" type="bus_bus" depart="15342.06" departLane="best" departSpeed="max" from="284927032#0" to="24295139#3"/>
    <trip id="bus96" type="bus_bus" depart="15503.55" departLane="best" from="-24267146#0" to="344084913#3"/>
    <trip id="bus97" type="bus_bus" depart="15665.05" departLane="best" from="324601502#3" to="24295136#21"/>
    <trip id="bus98" type="bus_bus" depart="15826.54" departLane="best" departSpeed="max" from="284927032#0" to="-133242880#0"/>
    <trip id="bus99" type="bus_bus" depart="15988.04" departLane="best" from="118793921#0" to="436277095#3"/>
    <trip id="bus100" type="bus_bus" depart="16149.53" departLane="best" from="435546424#1" to="314360433#8"/>
    <trip id="bus101" type="bus_bus" depart="16311.03" departLane="best" from="24305273#1" to="436287845#0"/>
    <trip id="bus102" type="bus_bus" depart="16472.52" departLane="best" departSpeed="max" from="435546424#0" to="24295097#1"/>
    <trip id="bus103" type="bus_bus" depart="16634.02" departLane="best" from="24295139#4" to="118793923#8"/>
    <trip id="bus104" type="bus_bus" depart="16795.51" departLane="best" departSpeed="max" from="360771086#0" to="436277095#3"/>
    <trip id="bus106" type="bus_bus" depart="17118.50" departLane="best" departSpeed="max" from="-24295097#1" to="329505437#0"/>
    <trip id="bus107" type="bus_bus" depart="17280.00" departLane="best" from="24305286#1" to="496739504#7"/>
    <trip id="bus108" type="bus_bus" depart="17441.50" departLane="best" departSpeed="max" from="360771086#0" to="129281459#0"/>
    <trip id="bus109" type="bus_bus" depart="17602.99" departLane="best" from="360771086#14" to="24295100#1"/>
    <trip id="bus110" type="bus_bus" depart="17764.49" departLane="best" from="324601502#6" to="24305294#3"/>
    <trip id="bus112" type="bus_bus" depart="18087.48" departLane="best" from="522768610#3" to="156115617#9"/>
    <trip id="bus113" type="bus_bus" depart="18248.97" departLane="best" from="522768610#0" to="24295136#5"/>
    <trip id="bus114" type="bus_bus" depart="18410.47" departLane="best" from="118793923#7" to="279653481#1"/>
    <trip id="bus115" type="bus_bus" depart="18571.96" departLane="best" from="329505240#5" to="24295246#3"/>
    <trip id="bus116" type="bus_bus" depart="18733.46" departLane="best" from="321544196#2" to="293115460#4"/>
    <trip id="bus117" type="bus_bus" depart="18894.95" departLane="best" from="24305399#2" to="317137449#9"/>
    <trip id="bus119" type="bus_bus" depart="19217.94" departLane="best" from="-133242880#1" to="496739504#4"/>
    <trip id="bus120" type="bus_bus" depart="19379.44" departLane="best" departSpeed="max" from="317137449#0" to="329505082"/>
    <trip id="bus121" type="bus_bus" depart="19540.93" departLane="best" from="24305273#4" to="401494444#15"/>
    <trip id="bus122" type="bus_bus" depart="19702.43" departLane="best" from="329505240#1" to="24295146#2"/>
    <trip id="bus123" type="bus_bus" depart="19863.93" departLane="best" from="279653481#1" to="24295146#0"/>
    <trip id="bus124" type="bus_bus" depart="20025.42" departLane="best" departSpeed="max" from="133242880#0" to="24305370#0"/>
    <trip id="bus125" type="bus_bus" depart="20186.92" departLane="best" departSpeed="max" from="435546424#0" to="321544196#2"/>
    <trip id="bus126" type="bus_bus" depart="20348.41" departLane="best" departSpeed="max" from="284927032#0" to="320249039#2"/>
    <trip id="bus127" type="bus_bus" depart="20509.91" departLane="best" departSpeed="max" from="325447816#0" to="284927029#2"/>
    <trip id="bus128" type="bus_bus" depart="20671.40" departLane="best" from="293115457#2" to="24295097#1"/>
    <trip id="bus129" type="bus_bus" depart="20832.90" departLane="best" from="293115460#9" to="436287845#0"/>
    <trip id="bus130" type="bus_bus" depart="20994.39" departLane="best" from="360771086#14" to="156115617#9"/>
    <trip id="bus131" type="bus_bus" depart="21155.89" departLane="best" from="118793921#4" to="293115460#6"/>
    <trip id="bus132" type="bus_bus" depart="21317.38" departLane="best" from="360771086#7" to="344084911"/>
    <trip id="bus133" type="bus_bus" depart="21478.88" departLane="best" from="326569902#0" to="24295100#1"/>
    <trip id="bus134" type="bus_bus" depart="21640.37" departLane="best" departSpeed="max" from="24295123" to="-571354729"/>
    <trip id="bus135" type="bus_bus" depart="21801.87" departLane="best" from="401494444#1" to="118793922#0"/>
    <trip id="bus136" type="bus_bus" depart="21963.36" departLane="best" from="279653481#7" to="321572180#3"/>
    <trip id="bus137" type="bus_bus" depart="22124.86" departLane="best" from="24295100#0" to="326569903#5"/>
    <trip id="bus138" type="bus_bus" depart="22286.36" departLane="best" departSpeed="max" from="314360433#0" to="24295136#17"/>
    <trip id="bus139" type="bus_bus" depart="22447.85" departLane="best" departSpeed="max" from="325447816#0" to="-133242880#0"/>
    <trip id="bus140" type="bus_bus" depart="22609.35" departLane="best" from="156115617#2" to="522768610#8"/>
    <trip id="bus141" type="bus_bus" depart="22770.84" departLane="best" from="314360433#7" to="118793918#3"/>
    <trip id="bus142" type="bus_bus" depart="22932.34" departLane="best" from="24295139#4" to="401494444#15"/>
    <trip id="bus143" type="bus_bus" depart="23093.83" departLane="best" from="293115460#17" to="360771086#19"/>
    <trip id="bus144" type="bus_bus" depart="23255.33" departLane="best" from="321396548#0" to="522768610#8"/>
    <trip id="bus145" type="bus_bus" depart="23416.82" departLane="best" from="435545285" to="321544188"/>
    <trip id="bus146" type="bus_bus" depart="23578.32" departLane="best" from="329505240#1" to="293115460#18"/>
    <trip id="bus147" type="bus_bus" depart="23739.81" departLane="best" departSpeed="max" from="396425746" to="314360433#9"/>
    <trip id="bus148" type="bus_bus" depart="23901.31" departLane="best" departSpeed="max" from="435546424#0" to="329876536#2"/>
    <trip id="bus149" type="bus_bus" depart="24062.80" departLane="best" from="302109830#0" to="24295136#21"/>
    <trip id="bus150" type="bus_bus" depart="24224.30" departLane="best" from="24295139#3" to="321572180#7"/>
    <trip id="bus151" type="bus_bus" depart="24385.79" departLane="best" from="344084913#8" to="293115460#8"/>
    <trip id="bus152" type="bus_bus" depart="24547.29" departLane="best" from="321572180#6" to="24295139#2"/>
    <trip id="bus153" type="bus_bus" depart="24708.79" departLane="best" from="118793921#1" to="24295139#7"/>
    <trip id="bus154" type="bus_bus" depart="24870.28" departLane="best" from="24295246#2" to="24295250#1"/>
    <trip id="bus155" type="bus_bus" depart="25031.78" departLane="best" departSpeed="max" from="317137449#0" to="152762229#4"/>
    <trip id="bus156" type="bus_bus" depart="25193.27" departLane="best" from="24295136#20" to="326569903#4"/>
    <trip id="bus157" type="bus_bus" depart="25354.77" departLane="best" from="284925148#0" to="24295097#1"/>
    <trip id="bus158" type="bus_bus" depart="25516.26" departLane="best" from="24305399#0" to="-133242880#0"/>
    <trip id="bus159" type="bus_bus" depart="25677.76" departLane="best" from="24305294#0" to="344084911"/>
    <trip id="bus160" type="bus_bus" depart="25839.25" departLane="best" from="401494444#12" to="522768610#8"/>
    <trip id="bus161" type="bus_bus" depart="26000.75" departLane="best" departSpeed="max" from="317137449#0" to="320601926#1"/>
    <trip id="bus162" type="bus_bus" depart="26162.24" departLane="best" from="293115457#0" to="-684284130"/>
    <trip id="bus163" type="bus_bus" depart="26323.74" departLane="best" from="24305286#10" to="326569837#5"/>
    <trip id="bus164" type="bus_bus" depart="26485.23" departLane="best" from="293115460#7" to="152762229#0"/>
    <trip id="bus165" type="bus_bus" depart="26646.73" departLane="best" departSpeed="max" from="279653481#0" to="317137449#17"/>
    <trip id="bus166" type="bus_bus" depart="26808.22" departLane="best" departSpeed="max" from="-24295097#1" to="324601502#0"/>
    <trip id="bus167" type="bus_bus" depart="26969.72" departLane="best" departSpeed="max" from="151073587#0" to="284927029#1"/>
    <trip id="bus168" type="bus_bus" depart="27131.21" departLane="best" from="24295136#11" to="24295250#1"/>
    <trip id="bus169" type="bus_bus" depart="27292.71" departLane="best" from="344084913#5" to="24305286#1"/>
    <trip id="bus170" type="bus_bus" depart="27454.21" departLane="best" from="24295139#6" to="118793923#2"/>
    <trip id="bus171" type="bus_bus" depart="27615.70" departLane="best" departSpeed="max" from="-24295097#1" to="314360433#5"/>
    <trip id="bus172" type="bus_bus" depart="27777.20" departLane="best" from="684284130" to="24305223#3"/>
    <trip id="bus173" type="bus_bus" depart="27938.69" departLane="best" from="324924047#2" to="344084911"/>
    <trip id="bus174" type="bus_bus" depart="28100.19" departLane="best" from="496739504#1" to="24267146#1"/>
    <trip id="bus175" type="bus_bus" depart="28261.68" departLane="best" departSpeed="max" from="-24295097#1" to="156115617#1"/>
    <trip id="bus176" type="bus_bus" depart="28423.18" departLane="best" departSpeed="max" from="133242880#0" to="324924047#2"/>
    <trip id="bus177" type="bus_bus" depart="28584.67" departLane="best" from="317137449#17" to="24295100#1"/>
    <trip id="bus178" type="bus_bus" depart="28746.17" departLane="best" from="360771086#7" to="522768611#1"/>
    <trip id="bus179" type="bus_bus" depart="28907.66" departLane="best" from="24305273#3" to="326569837#4"/>
    <trip id="bus180" type="bus_bus" depart="29069.16" departLane="best" from="496739504#5" to="24305294#0"/>
    <trip id="bus181" type="bus_bus" depart="29230.65" departLane="best" from="326569903#5" to="321572180#2"/>
    <trip id="bus182" type="bus_bus" depart="29392.15" departLane="best" from="118793923#4" to="344084913#4"/>
    <trip id="bus183" type="bus_bus" depart="29553.64" departLane="best" from="401494444#1" to="320601926#1"/>
    <trip id="bus184" type="bus_bus" depart="29715.14" departLane="best" departSpeed="max" from="133242880#0" to="633508215#3"/>
    <trip id="bus185" type="bus_bus" depart="29876.64" departLane="best" departSpeed="max" from="360771086#0" to="24305223#1"/>
    <trip id="bus186" type="bus_bus" depart="30038.13" departLane="best" departSpeed="max" from="284927032#0" to="24305282#0"/>
    <trip id="bus187" type="bus_bus" depart="30199.63" departLane="best" from="314360433#2" to="24295254#6"/>
    <trip id="bus188" type="bus_bus" depart="30361.12" departLane="best" from="401494444#1" to="360771086#3"/>
    <trip id="bus189" type="bus_bus" depart="30522.62" departLane="best" from="118793923#5" to="522768611#0"/>
    <trip id="bus190" type="bus_bus" depart="30684.11" departLane="best" from="327607339#2" to="279653481#1"/>
    <trip id="bus191" type="bus_bus" depart="30845.61" departLane="best" from="329505437#4" to="522768611#1"/>
    <trip id="bus192" type="bus_bus" depart="31007.10" departLane="best" departSpeed="max" from="317137449#0" to="293115457#3"/>
    <trip id="bus193" type="bus_bus" depart="31168.60" departLane="best" from="284927032#3" to="329505240#5"/>
    <trip id="bus194" type="bus_bus" depart="31330.09" departLane="best" from="24295246#0" to="401494444#15"/>
    <trip id="bus195" type="bus_bus" depart="31491.59" departLane="best" departSpeed="max" from="396425746" to="118793923#4"/>
    <trip id="bus196" type="bus_bus" depart="31653.08" departLane="best" departSpeed="max" from="435541876#0" to="24295136#17"/>
    <trip id="bus197" type="bus_bus" depart="31814.58" departLane="best" from="293115460#5" to="321544178"/>
    <trip id="bus198" type="bus_bus" depart="31976.07" departLane="best" from="401494444#1" to="172580997"/>
    <trip id="bus199" type="bus_bus" depart="32137.57" departLane="best" from="24295136#11" to="360771086#15"/>
    <trip id="bus201" type="bus_bus" depart="32460.56" departLane="best" departSpeed="max" from="326569955#0" to="24295139#3"/>
    <trip id="bus202" type="bus_bus" depart="32622.06" departLane="best" departSpeed="max" from="312662578#0" to="344084911"/>
    <trip id="bus203" type="bus_bus" depart="32783.55" departLane="best" departSpeed="max" from="312662578#0" to="360771086#13"/>
    <trip id="bus204" type="bus_bus" depart="32945.05" departLane="best" from="118793923#0" to="24295100#1"/>
    <trip id="bus205" type="bus_bus" depart="33106.54" departLane="best" departSpeed="max" from="326569955#0" to="24295246#0"/>
    <trip id="bus206" type="bus_bus" depart="33268.04" departLane="best" from="320249068#0" to="284927029#2"/>
    <trip id="bus207" type="bus_bus" depart="33429.53" departLane="best" departSpeed="max" from="315196302#0" to="24305399#1"/>
    <trip id="bus208" type="bus_bus" depart="33591.03" departLane="best" from="24295139#6" to="151181510#1"/>
    <trip id="bus209" type="bus_bus" depart="33752.52" departLane="best" from="24295097#0" to="151181510#1"/>
    <trip id="bus210" type="bus_bus" depart="33914.02" departLane="best" departSpeed="max" from="312662578#0" to="329505240#2"/>
    <trip id="bus211" type="bus_bus" depart="34075.51" departLane="best" from="522768610#6" to="302109830#0"/>
    <trip id="bus212" type="bus_bus" depart="34237.01" departLane="best" from="24295254#4" to="118793923#8"/>
    <trip id="bus213" type="bus_bus" depart="34398.50" departLane="best" departSpeed="max" from="315196302#0" to="24295139#2"/>
    <trip id="bus214" type="bus_bus" depart="34560.00" departLane="best" departSpeed="max" from="326569955#0" to="152762229#0"/>
    <trip id="bus215" type="bus_bus" depart="34721.50" departLane="best" from="401494444#5" to="293115460#11"/>
    <trip id="bus216" type="bus_bus" depart="34882.99" departLane="best" from="401494444#8" to="317137449#8"/>
    <trip id="bus217" type="bus_bus" depart="35044.49" departLane="best" from="156115617#6" to="118793918#4"/>
    <trip id="bus218" type="bus_bus" depart="35205.98" departLane="best" from="369135366#0" to="24305294#3"/>
    <trip id="bus219" type="bus_bus" depart="35367.48" departLane="best" from="118793920" to="321572180#3"/>
    <trip id="bus220" type="bus_bus" depart="35528.97" departLane="best" from="633508215#3" to="151181510#1"/>
    <trip id="bus221" type="bus_bus" depart="35690.47" departLane="best" from="360771086#10" to="24295100#1"/>
    <trip id="bus222" type="bus_bus" depart="35851.96" departLane="best" from="329876536#1" to="522768610#7"/>
    <trip id="bus223" type="bus_bus" depart="36013.46" departLane="best" from="24295136#1" to="24295097#1"/>
    <trip id="bus224" type="bus_bus" depart="36174.95" departLane="best" departSpeed="max" from="325447816#0" to="156115617#3"/>
    <trip id="bus225" type="bus_bus" depart="36336.45" departLane="best" from="156115617#1" to="118793922#3"/>
    <trip id="bus226" type="bus_bus" depart="36497.94" departLane="best" from="-24267146#0" to="284925148#1"/>
    <trip id="bus227" type="bus_bus" depart="36659.44" departLane="best" from="321396548#0" to="24295139#7"/>
    <trip id="bus228" type="bus_bus" depart="36820.93" departLane="best" from="24295136#20" to="327607511#1"/>
    <trip id="bus229" type="bus_bus" depart="36982.43" departLane="best" from="326569903#4" to="496739504#3"/>
    <trip id="bus230" type="bus_bus" depart="37143.93" departLane="best" from="360771086#1" to="321572180#1"/>
    <trip id="bus231" type="bus_bus" depart="37305.42" departLane="best" departSpeed="max" from="325447816#0" to="522768610#0"/>
    <trip id="bus232" type="bus_bus" depart="37466.92" departLane="best" departSpeed="max" from="284927032#0" to="314360433#7"/>
    <trip id="bus234" type="bus_bus" depart="37789.91" departLane="best" departSpeed="max" from="24305223#0" to="151181510#1"/>
    <trip id="bus235" type="bus_bus" depart="37951.40" departLane="best" from="436478051#2" to="293115460#18"/>
    <trip id="bus236" type="bus_bus" depart="38112.90" departLane="best" departSpeed="max" from="314360433#0" to="118793923#1"/>
    <trip id="bus237" type="bus_bus" depart="38274.39" departLane="best" from="118793922#3" to="522768611#1"/>
    <trip id="bus238" type="bus_bus" depart="38435.89" departLane="best" departSpeed="max" from="396425746" to="317137449#9"/>
    <trip id="bus239" type="bus_bus" depart="38597.38" departLane="best" from="-646591409" to="344084911"/>
    <trip id="bus240" type="bus_bus" depart="38758.88" departLane="best" from="293115460#8" to="324601502#6"/>
    <trip id="bus241" type="bus_bus" depart="38920.37" departLane="best" departSpeed="max" from="436277095#0" to="172580997"/>
    <trip id="bus242" type="bus_bus" depart="39081.87" departLane="best" departSpeed="max" from="312662578#0" to="118793923#6"/>
    <trip id="bus243" type="bus_bus" depart="39243.36" departLane="best" from="24305286#9" to="24295254#4"/>
    <trip id="bus244" type="bus_bus" depart="39404.86" departLane="best" from="24305286#0" to="326569903#4"/>
    <trip id="bus246" type="bus_bus" depart="39727.85" departLane="best" from="293115460#16" to="24295246#4"/>
    <trip id="bus247" type="bus_bus" depart="39889.35" departLane="best" from="24305282#0" to="522768611#1"/>
    <trip id="bus248" type="bus_bus" depart="40050.84" departLane="best" from="633508213#1" to="324601502#7"/>
    <trip id="bus249" type="bus_bus" depart="40212.34" departLane="best" departSpeed="max" from="317137449#0" to="24305365#4"/>
    <trip id="bus250" type="bus_bus" depart="40373.83" departLane="best" from="344084913#3" to="321572180#1"/>
    <trip id="bus251" type="bus_bus" depart="40535.33" departLane="best" from="344084913#4" to="24295097#0"/>
    <trip id="bus252" type="bus_bus" depart="40696.82" departLane="best" from="317137449#1" to="496739504#5"/>
    <trip id="bus253" type="bus_bus" depart="40858.32" departLane="best" departSpeed="max" from="133242880#0" to="571354729"/>
    <trip id="bus254" type="bus_bus" depart="41019.81" departLane="best" from="321544196#3" to="24295136#14"/>
    <trip id="bus256" type="bus_bus" depart="41342.80" departLane="best" from="317137449#10" to="118793923#7"/>
    <trip id="bus257" type="bus_bus" depart="41504.30" departLane="best" from="293115460#4" to="151181510#1"/>
    <trip id="bus258" type="bus_bus" depart="41665.79" departLane="best" departSpeed="max" from="396425746" to="293115460#18"/>
    <trip id="bus259" type="bus_bus" depart="41827.29" departLane="best" from="329505240#0" to="293115460#3"/>
    <trip id="bus260" type="bus_bus" depart="41988.79" departLane="best" from="24295246#3" to="369135366#1"/>
    <trip id="bus261" type="bus_bus" depart="42150.28" departLane="best" from="24295246#4" to="360771086#1"/>
    <trip id="bus262" type="bus_bus" depart="42311.78" departLane="best" from="314360433#2" to="360771086#3"/>