<routes xmlns:xsi="http://www.w3.org/2001/XMLSchema-instance" xsi:noNamespaceSchemaLocation="http://sumo.dlr.de/xsd/routes_file.xsd">
    <vType id="truck_truck" vClass="truck" />
    <vType emissionClass="HBEFA3/LDV_G_EU1" id="truck_truck_E1" vClass="truck" />
    <vType emissionClass="HBEFA3/LDV_G_EU2" id="truck_truck_E2" vClass="truck" />
    <vType emissionClass="HBEFA3/LDV_G_EU3" id="truck_truck_E3" vClass="truck" />
    <vType emissionClass="HBEFA3/LDV_G_EU4" id="truck_truck_E4" vClass="truck" />
    <vType emissionClass="HBEFA3/LDV_G_EU5" id="truck_truck_E5" vClass="truck" />
    <vType emissionClass="HBEFA3/LDV_G_EU6" id="truck_truck_E6" vClass="truck" />
    <trip depart="0.00" departLane="best" departSpeed="max" from="435546424#0" id="truck0" to="118793923#4" type="truck_truck_E5" />
    <trip depart="81.97" departLane="best" from="24295136#14" id="truck1" to="293115460#18" type="truck_truck_E6" />
    <trip depart="245.92" departLane="best" from="360771086#20" id="truck3" to="327607339#0" type="truck_truck_E6" />
    <trip depart="327.89" departLane="best" from="496739504#5" id="truck4" to="24295254#6" type="truck_truck_E6" />
    <trip depart="409.87" departLane="best" from="118793923#0" id="truck5" to="118793923#8" type="truck_truck_E4" />
    <trip depart="491.84" departLane="best" departSpeed="max" from="401494444#0" id="truck6" to="320601926#1" type="truck_truck_E5" />
    <trip depart="573.81" departLane="best" from="360771086#21" id="truck7" to="329505240#4" type="truck_truck_E5" />
    <trip depart="655.79" departLane="best" from="315196302#1" id="truck8" to="571354729" type="truck_truck_E6" />
    <trip depart="819.73" departLane="best" departSpeed="max" from="396425746" id="truck10" to="321544196#3" type="truck_truck_E5" />
    <trip depart="901.71" departLane="best" from="401494444#2" id="truck11" to="320249039#0" type="truck_truck_E6" />
    <trip depart="983.68" departLane="best" from="327607339#1" id="truck12" to="111940154#2" type="truck_truck_E6" />
    <trip depart="1065.65" departLane="best" from="118793923#3" id="truck13" to="24295139#4" type="truck_truck_E6" />
    <trip depart="1147.63" departLane="best" from="324601502#1" id="truck14" to="24305273#5" type="truck_truck_E6" />
    <trip depart="1229.60" departLane="best" from="24305365#4" id="truck15" to="24295097#1" type="truck_truck_E4" />
    <trip depart="1311.57" departLane="best" from="156115617#0" id="truck16" to="329505240#4" type="truck_truck_E4" />
    <trip depart="1393.55" departLane="best" from="633508213#5" id="truck17" to="321572180#8" type="truck_truck_E5" />
    <trip depart="1475.52" departLane="best" from="317137449#12" id="truck18" to="326569902#4" type="truck_truck_E3" />
    <trip depart="1557.50" departLane="best" from="24295136#11" id="truck19" to="522768610#5" type="truck_truck_E1" />
    <trip depart="1639.47" departLane="best" departSpeed="max" from="435541876#0" id="truck20" to="24295246#4" type="truck_truck_E6" />
    <trip depart="1721.44" departLane="best" departSpeed="max" from="325447816#0" id="truck21" to="24305294#0" type="truck_truck_E6" />
    <trip depart="1803.42" departLane="best" departSpeed="max" from="436277095#0" id="truck22" to="284925148#1" type="truck_truck_E5" />
    <trip depart="1885.39" departLane="best" from="646591409" id="truck23" to="293115460#3" type="truck_truck_E4" />
    <trip depart="1967.36" departLane="best" from="360771086#10" id="truck24" to="24305370#1" type="truck_truck_E6" />
    <trip depart="2049.34" departLane="best" from="118793918#3" id="truck25" to="24305286#10" type="truck_truck_E2" />
    <trip depart="2131.31" departLane="best" from="646591409" id="truck26" to="302109830#2" type="truck_truck_E5" />
    <trip depart="2213.28" departLane="best" from="522768610#4" id="truck27" to="401494444#3" type="truck_truck_E5" />
    <trip depart="2295.26" departLane="best" departSpeed="max" from="-24267146#1" id="truck28" to="329505240#0" type="truck_truck_E4" />
    <trip depart="2377.23" departLane="best" from="326569902#5" id="truck29" to="314360433#4" type="truck_truck_E5" />
    <trip depart="2459.20" departLane="best" from="24295246#0" id="truck30" to="321572180#8" type="truck_truck_E4" />
    <trip depart="2541.18" departLane="best" from="129281458" id="truck31" to="279653481#1" type="truck_truck_E4" />
    <trip depart="2623.15" departLane="best" from="293115460#15" id="truck32" to="522768610#8" type="truck_truck_E6" />
    <trip depart="2705.12" departLane="best" departSpeed="max" from="435541876#0" id="truck33" to="24295136#4" type="truck_truck_E5" />
    <trip depart="2787.10" departLane="best" departSpeed="max" from="436277095#0" id="truck34" to="435541876#1" type="truck_truck_E5" />
    <trip depart="2869.07" departLane="best" from="24305223#1" id="truck35" to="321572180#8" type="truck_truck_E5" />
    <trip depart="2951.04" departLane="best" from="321544196#3" id="truck36" to="156115617#1" type="truck_truck_E6" />
    <trip depart="3033.02" departLane="best" departSpeed="max" from="360771086#0" id="truck37" to="314360433#1" type="truck_truck_E6" />
    <trip depart="3114.99" departLane="best" from="-133242880#1" id="truck38" to="24295250#1" type="truck_truck_E6" />
    <trip depart="3196.96" departLane="best" departSpeed="max" from="-24295097#1" id="truck39" to="496739504#5" type="truck_truck_E5" />
    <trip depart="3278.94" departLane="best" from="24305273#1" id="truck40" to="118793920" type="truck_truck_E5" />
    <trip depart="3360.91" departLane="best" departSpeed="max" from="435541876#0" id="truck41" to="522768610#7" type="truck_truck_E5" />
    <trip depart="3442.88" departLane="best" from="118793921#4" id="truck42" to="293115460#0" type="truck_truck_E5" />
    <trip depart="3524.86" departLane="best" from="344084913#8" id="truck43" to="152762229#1" type="truck_truck_E3" />
    <trip depart="3606.83" departLane="best" departSpeed="max" from="284927032#0" id="truck44" to="24295097#1" type="truck_truck_E6" />
    <trip depart="3688.80" departLane="best" departSpeed="max" from="317137449#0" id="truck45" to="329505240#4" type="truck_truck_E3" />
    <trip depart="3770.78" departLane="best" departSpeed="max" from="24295123" id="truck46" to="24295246#2" type="truck_truck_E5" />
    <trip depart="3852.75" departLane="best" from="633508215#3" id="truck47" to="324601502#6" type="truck_truck_E4" />
    <trip depart="3934.72" departLane="best" from="24295136#2" id="truck48" to="24295100#1" type="truck_truck_E5" />
    <trip depart="4016.70" departLane="best" from="118793919#3" id="truck49" to="321572180#4" type="truck_truck_E5" />
    <trip depart="4098.67" departLane="best" from="24295136#8" id="truck50" to="324924047#2" type="truck_truck_E5" />
    <trip depart="4180.65" departLane="best" from="436277095#9" id="truck51" to="317137449#7" type="truck_truck_E5" />
    <trip depart="4262.62" departLane="best" from="293115460#9" id="truck52" to="344372307#1" type="truck_truck_E6" />
    <trip depart="4344.59" departLane="best" departSpeed="max" from="284927032#0" id="truck53" to="284927029#2" type="truck_truck_E5" />
    <trip depart="4426.57" departLane="best" from="329505240#5" id="truck54" to="326569837#1" type="truck_truck_E5" />
    <trip depart="4508.54" departLane="best" from="571354729" id="truck55" to="118793923#8" type="truck_truck_E5" />
    <trip depart="4590.51" departLane="best" from="279653481#1" id="truck56" to="24295254#6" type="truck_truck_E4" />
    <trip depart="4672.49" departLane="best" from="401494444#2" id="truck57" to="24295136#2" type="truck_truck_E5" />
    <trip depart="4754.46" departLane="best" from="24267146#0" id="truck58" to="284925148#0" type="truck_truck_E6" />
    <trip depart="4836.43" departLane="best" from="284927029#1" id="truck59" to="24295139#4" type="truck_truck_E2" />
    <trip depart="4918.41" departLane="best" from="24295139#4" id="truck60" to="496739504#3" type="truck_truck_E5" />
    <trip depart="5000.38" departLane="best" from="317137449#1" id="truck61" to="118793918#3" type="truck_truck_E4" />
    <trip depart="5164.33" departLane="best" from="522768610#3" id="truck63" to="496739504#4" type="truck_truck_E6" />
    <trip depart="5246.30" departLane="best" departSpeed="max" from="401494444#0" id="truck64" to="156115617#7" type="truck_truck_E6" />
    <trip depart="5328.27" departLane="best" departSpeed="max" from="312662578#0" id="truck65" to="24295097#1" type="truck_truck_E5" />
    <trip depart="5410.25" departLane="best" departSpeed="max" from="279653481#0" id="truck66" to="118793920" type="truck_truck_E6" />
    <trip depart="5492.22" departLane="best" from="24305370#1" id="truck67" to="633508215#4" type="truck_truck_E6" />
    <trip depart="5574.19" departLane="best" from="24295147#1" id="truck68" to="344372307#0" type="truck_truck_E2" />
    <trip depart="5656.17" departLane="best" from="293115460#16" id="truck69" to="24305370#1" type="truck_truck_E5" />
    <trip depart="5738.14" departLane="best" from="496739504#5" id="truck70" to="633508215#4" type="truck_truck_E6" />
    <trip depart="5820.11" departLane="best" from="317137449#12" id="truck71" to="329505082" type="truck_truck_E5" />
    <trip depart="5902.09" departLane="best" from="152762229#2" id="truck72" to="24295146#0" type="truck_truck_E5" />
    <trip depart="5984.06" departLane="best" from="522768610#3" id="truck73" to="320249039#2" type="truck_truck_E5" />
    <trip depart="6066.03" departLane="best" departSpeed="max" from="317137449#0" id="truck74" to="344084911" type="truck_truck_E5" />
    <trip depart="6148.01" departLane="best" from="111940154#1" id="truck75" to="320249068#2" type="truck_truck_E6" />
    <trip depart="6229.98" departLane="best" departSpeed="max" from="314360433#0" id="truck76" to="401494444#15" type="truck_truck_E5" />
    <trip depart="6311.95" departLane="best" from="152762229#4" id="truck77" to="522768611#0" type="truck_truck_E2" />
    <trip depart="6393.93" departLane="best" from="118793921#2" id="truck78" to="172580997" type="truck_truck_E5" />
    <trip depart="6475.90" departLane="best" from="321396548#0" id="truck79" to="321544196#3" type="truck_truck_E5" />
    <trip depart="6557.87" departLane="best" departSpeed="max" from="24295123" id="truck80" to="327607512#0" type="truck_truck_E5" />
    <trip depart="6639.85" departLane="best" from="24305273#5" id="truck81" to="344084911" type="truck_truck_E6" />
    <trip depart="6721.82" departLane="best" from="118793920" id="truck82" to="24295097#1" type="truck_truck_E5" />
    <trip depart="6885.77" departLane="best" from="24305365#4" id="truck84" to="156115617#3" type="truck_truck_E4" />
    <trip depart="6967.74" departLane="best" departSpeed="max" from="396425746" id="truck85" to="327607511#0" type="truck_truck_E5" />
    <trip depart="7049.72" departLane="best" from="321544196#4" id="truck86" to="633508215#4" type="truck_truck_E5" />
    <trip depart="7131.69" departLane="best" departSpeed="max" from="325447816#0" id="truck87" to="-133242880#0" type="truck_truck_E5" />
    <trip depart="7213.66" departLane="best" from="360771086#6" id="truck88" to="24295146#2" type="truck_truck_E5" />
    <trip depart="7295.64" departLane="best" departSpeed="max" from="325447816#0" id="truck89" to="522768610#3" type="truck_truck_E6" />
    <trip depart="7377.61" departLane="best" departSpeed="max" from="151073587#0" id="truck90" to="151181510#1" type="truck_truck_E4" />
    <trip depart="7541.56" departLane="best" from="329505240#0" id="truck92" to="24295097#0" type="truck_truck_E5" />
    <trip depart="7623.53" departLane="best" departSpeed="max" from="312662578#0" id="truck93" to="436287845#0" type="truck_truck_E5" />
    <trip depart="7705.50" departLane="best" departSpeed="max" from="401494444#0" id="truck94" to="118793923#7" type="truck_truck_E5" />
    <trip depart="7787.48" departLane="best" departSpeed="max" from="284927032#0" id="truck95" to="24295139#3" type="truck_truck_E6" />
    <trip depart="7869.45" departLane="best" from="-24267146#0" id="truck96" to="344084913#3" type="truck_truck_E5" />
    <trip depart="7951.42" departLane="best" from="324601502#3" id="truck97" to="24295136#21" type="truck_truck_E5" />
    <trip depart="8033.40" departLane="best" departSpeed="max" from="284927032#0" id="truck98" to="-133242880#0" type="truck_truck_E6" />
    <trip depart="8115.37" departLane="best" from="118793921#0" id="truck99" to="436277095#3" type="truck_truck_E5" />
    <trip depart="8197.34" departLane="best" from="435546424#1" id="truck100" to="314360433#8" type="truck_truck_E5" />
    <trip depart="8279.32" departLane="best" from="24305273#1" id="truck101" to="436287845#0" type="truck_truck_E5" />
    <trip depart="8361.29" departLane="best" departSpeed="max" from="435546424#0" id="truck102" to="24295097#1" type="truck_truck_E4" />
    <trip depart="8443.26" departLane="best" from="24295139#4" id="truck103" to="118793923#8" type="truck_truck_E5" />
    <trip depart="8525.24" departLane="best" departSpeed="max" from="360771086#0" id="truck104" to="436277095#3" type="truck_truck_E3" />
    <trip depart="8689.18" departLane="best" departSpeed="max" from="-24295097#1" id="truck106" to="329505437#0" type="truck_truck_E4" />
    <trip depart="8771.16" departLane="best" from="24305286#1" id="truck107" to="496739504#7" type="truck_truck_E3" />
    <trip depart="8853.13" departLane="best" departSpeed="max" from="360771086#0" id="truck108" to="129281459#0" type="truck_truck_E2" />
    <trip depart="8935.10" departLane="best" from="360771086#14" id="truck109" to="24295100#1" type="truck_truck_E2" />
    <trip depart="9017.08" departLane="best" from="324601502#6" id="truck110" to="24305294#3" type="truck_truck_E6" />
    <trip depart="9181.02" departLane="best" from="522768610#3" id="truck112" to="156115617#9" type="truck_truck_E6" />
    <trip depart="9263.00" departLane="best" from="522768610#0" id="truck113" to="24295136#5" type="truck_truck_E5" />
    <trip depart="9344.97" departLane="best" from="118793923#7" id="truck114" to="279653481#1" type="truck_truck_E6" />
    <trip depart="9426.95" departLane="best" from="329505240#5" id="truck115" to="24295246#3" type="truck_truck_E6" />
    <trip depart="9508.92" departLane="best" from="321544196#2" id="truck116" to="293115460#4" type="truck_truck_E5" />
    <trip depart="9590.89" departLane="best" from="24305399#2" id="truck117" to="317137449#9" type="truck_truck_E4" />
    <trip depart="9754.84" departLane="best" from="-133242880#1" id="truck119" to="496739504#4" type="truck_truck_E3" />
    <trip depart="9836.81" departLane="best" departSpeed="max" from="317137449#0" id="truck120" to="329505082" type="truck_truck_E1" />
    <trip depart="9918.79" departLane="best" from="24305273#4" id="truck121" to="401494444#15" type="truck_truck_E6" />
    <trip depart="10000.76" departLane="best" from="329505240#1" id="truck122" to="24295146#2" type="truck_truck_E5" />
    <trip depart="10082.73" departLane="best" from="279653481#1" id="truck123" to="24295146#0" type="truck_truck_E5" />
    <trip depart="10164.71" departLane="best" departSpeed="max" from="133242880#0" id="truck124" to="24305370#0" type="truck_truck_E5" />
    <trip depart="10246.68" departLane="best" departSpeed="max" from="435546424#0" id="truck125" to="321544196#2" type="truck_truck_E6" />
    <trip depart="10328.65" departLane="best" departSpeed="max" from="284927032#0" id="truck126" to="320249039#2" type="truck_truck_E5" />
    <trip depart="10410.63" departLane="best" departSpeed="max" from="325447816#0" id="truck127" to="284927029#2" type="truck_truck_E5" />
    <trip depart="10492.60" departLane="best" from="293115457#2" id="truck128" to="24295097#1" type="truck_truck_E5" />
    <trip depart="10574.57" departLane="best" from="293115460#9" id="truck129" to="436287845#0" type="truck_truck_E4" />
    <trip depart="10656.55" departLane="best" from="360771086#14" id="truck130" to="156115617#9" type="truck_truck_E4" />
    <trip depart="10738.52" departLane="best" from="118793921#4" id="truck131" to="293115460#6" type="truck_truck_E6" />
    <trip depart="10820.49" departLane="best" from="360771086#7" id="truck132" to="344084911" type="truck_truck_E5" />
    <trip depart="10902.47" departLane="best" from="326569902#0" id="truck133" to="24295100#1" type="truck_truck_E5" />
    <trip depart="10984.44" departLane="best" departSpeed="max" from="24295123" id="truck134" to="-571354729" type="truck_truck_E5" />
    <trip depart="11066.41" departLane="best" from="401494444#1" id="truck135" to="118793922#0" type="truck_truck_E2" />
    <trip depart="11148.39" departLane="best" from="279653481#7" id="truck136" to="321572180#3" type="truck_truck_E5" />
    <trip depart="11230.36" departLane="best" from="24295100#0" id="truck137" to="326569903#5" type="truck_truck_E5" />
    <trip depart="11312.33" departLane="best" departSpeed="max" from="314360433#0" id="truck138" to="24295136#17" type="truck_truck_E4" />
    <trip depart="11394.31" departLane="best" departSpeed="max" from="325447816#0" id="truck139" to="-133242880#0" type="truck_truck_E3" />
    <trip depart="11476.28" departLane="best" from="156115617#2" id="truck140" to="522768610#8" type="truck_truck_E5" />
    <trip depart="11558.25" departLane="best" from="314360433#7" id="truck141" to="118793918#3" type="truck_truck_E6" />
    <trip depart="11640.23" departLane="best" from="24295139#4" id="truck142" to="401494444#15" type="truck_truck_E5" />
    <trip depart="11722.20" departLane="best" from="293115460#17" id="truck143" to="360771086#19" type="truck_truck_E6" />
    <trip depart="11804.17" departLane="best" from="321396548#0" id="truck144" to="522768610#8" type="truck_truck_E3" />
    <trip depart="11886.15" departLane="best" from="435545285" id="truck145" to="321544188" type="truck_truck_E5" />
    <trip depart="11968.12" departLane="best" from="329505240#1" id="truck146" to="293115460#18" type="truck_truck_E5" />
    <trip depart="12050.09" departLane="best" departSpeed="max" from="396425746" id="truck147" to="314360433#9" type="truck_truck_E6" />
    <trip depart="12132.07" departLane="best" departSpeed="max" from="435546424#0" id="truck148" to="329876536#2" type="truck_truck_E5" />
    <trip depart="12214.04" departLane="best" from="302109830#0" id="truck149" to="24295136#21" type="truck_truck_E5" />
    <trip depart="12296.02" departLane="best" from="24295139#3" id="truck150" to="321572180#7" type="truck_truck_E6" />
    <trip depart="12377.99" departLane="best" from="344084913#8" id="truck151" to="293115460#8" type="truck_truck_E6" />
    <trip depart="12459.96" departLane="best" from="321572180#6" id="truck152" to="24295139#2" type="truck_truck_E5" />
    <trip depart="12541.94" departLane="best" from="118793921#1" id="truck153" to="24295139#7" type="truck_truck_E5" />
    <trip depart="12623.91" departLane="best" from="24295246#2" id="truck154" to="24295250#1" type="truck_truck_E5" />
    <trip depart="12705.88" departLane="best" departSpeed="max" from="317137449#0" id="truck155" to="152762229#4" type="truck_truck_E5" />
    <trip depart="12787.86" departLane="best" from="24295136#20" id="truck156" to="326569903#4" type="truck_truck_E4" />
    <trip depart="12869.83" departLane="best" from="284925148#0" id="truck157" to="24295097#1" type="truck_truck_E5" />
    <trip depart="12951.80" departLane="best" from="24305399#0" id="truck158" to="-133242880#0" type="truck_truck_E5" />
    <trip depart="13033.78" departLane="best" from="24305294#0" id="truck159" to="344084911" type="truck_truck_E4" />
    <trip depart="13115.75" departLane="best" from="401494444#12" id="truck160" to="522768610#8" type="truck_truck_E5" />
    <trip depart="13197.72" departLane="best" departSpeed="max" from="317137449#0" id="truck161" to="320601926#1" type="truck_truck_E5" />
    <trip depart="13279.70" departLane="best" from="293115457#0" id="truck162" to="-684284130" type="truck_truck_E6" />
    <trip depart="13361.67" departLane="best" from="24305286#10" id="truck163" to="326569837#5" type="truck_truck_E5" />
    <trip depart="13443.64" departLane="best" from="293115460#7" id="truck164" to="152762229#0" type="truck_truck_E5" />
    <trip depart="13525.62" departLane="best" departSpeed="max" from="279653481#0" id="truck165" to="317137449#17" type="truck_truck_E6" />
    <trip depart="13607.59" departLane="best" departSpeed="max" from="-24295097#1" id="truck166" to="324601502#0" type="truck_truck_E6" />
    <trip depart="13689.56" departLane="best" departSpeed="max" from="151073587#0" id="truck167" to="284927029#1" type="truck_truck_E5" />
    <trip depart="13771.54" departLane="best" from="24295136#11" id="truck168" to="24295250#1" type="truck_truck_E5" />
    <trip depart="13853.51" departLane="best" from="344084913#5" id="truck169" to="24305286#1" type="truck_truck_E6" />
    <trip depart="13935.48" departLane="best" from="24295139#6" id="truck170" to="118793923#2" type="truck_truck_E6" />
    <trip depart="14017.46" departLane="best" departSpeed="max" from="-24295097#1" id="truck171" to="314360433#5" type="truck_truck_E5" />
    <trip depart="14099.43" departLane="best" from="684284130" id="truck172" to="24305223#3" type="truck_truck_E6" />
    <trip depart="14181.40" departLane="best" from="324924047#2" id="truck173" to="344084911" type="truck_truck_E6" />
    <trip depart="14263.38" departLane="best" from="496739504#1" id="truck174" to="24267146#1" type="truck_truck_E6" />
    <trip depart="14345.35" departLane="best" departSpeed="max" from="-24295097#1" id="truck175" to="156115617#1" type="truck_truck_E5" />
    <trip depart="14427.32" departLane="best" departSpeed="max" from="133242880#0" id="truck176" to="324924047#2" type="truck_truck_E6" />
    <trip depart="14509.30" departLane="best" from="317137449#17" id="truck177" to="24295100#1" type="truck_truck_E5" />
    <trip depart="14591.27" departLane="best" from="360771086#7" id="truck178" to="522768611#1" type="truck_truck_E3" />
    <trip depart="14673.24" departLane="best" from="24305273#3" id="truck179" to="326569837#4" type="truck_truck_E4" />
    <trip depart="14755.22" departLane="best" from="496739504#5" id="truck180" to="24305294#0" type="truck_truck_E1" />
    <trip depart="14837.19" departLane="best" from="326569903#5" id="truck181" to="321572180#2" type="truck_truck_E1" />
    <trip depart="14919.17" departLane="best" from="118793923#4" id="truck182" to="344084913#4" type="truck_truck_E5" />
    <trip depart="15001.14" departLane="best" from="401494444#1" id="truck183" to="320601926#1" type="truck_truck_E5" />
    <trip depart="15083.11" departLane="best" departSpeed="max" from="133242880#0" id="truck184" to="633508215#3" type="truck_truck_E5" />
    <trip depart="15165.09" departLane="best" departSpeed="max" from="360771086#0" id="truck185" to="24305223#1" type="truck_truck_E6" />
    <trip depart="15247.06" departLane="best" departSpeed="max" from="284927032#0" id="truck186" to="24305282#0" type="truck_truck_E6" />
    <trip depart="15329.03" departLane="best" from="314360433#2" id="truck187" to="24295254#6" type="truck_truck_E6" />
    <trip depart="15411.01" departLane="best" from="401494444#1" id="truck188" to="360771086#3" type="truck_truck_E5" />
    <trip depart="15492.98" departLane="best" from="118793923#5" id="truck189" to="522768611#0" type="truck_truck_E6" />
    <trip depart="15574.95" departLane="best" from="327607339#2" id="truck190" to="279653481#1" type="truck_truck_E4" />
    <trip depart="15656.93" departLane="best" from="329505437#4" id="truck191" to="522768611#1" type="truck_truck_E5" />
    <trip depart="15738.90" departLane="best" departSpeed="max" from="317137449#0" id="truck192" to="293115457#3" type="truck_truck_E2" />
    <trip depart="15820.87" departLane="best" from="284927032#3" id="truck193" to="329505240#5" type="truck_truck_E5" />
    <trip depart="15902.85" departLane="best" from="24295246#0" id="truck194" to="401494444#15" type="truck_truck_E5" />
    <trip depart="15984.82" departLane="best" departSpeed="max" from="396425746" id="truck195" to="118793923#4" type="truck_truck_E4" />
    <trip depart="16066.79" departLane="best" departSpeed="max" from="435541876#0" id="truck196" to="24295136#17" type="truck_truck_E5" />
    <trip depart="16148.77" departLane="best" from="293115460#5" id="truck197" to="321544178" type="truck_truck_E6" />
    <trip depart="16230.74" departLane="best" from="401494444#1" id="truck198" to="172580997" type="truck_truck_E5" />
    <trip depart="16312.71" departLane="best" from="24295136#11" id="truck199" to="360771086#15" type="truck_truck_E4" />
    <trip depart="16476.66" departLane="best" departSpeed="max" from="326569955#0" id="truck201" to="24295139#3" type="truck_truck_E5" />
    <trip depart="16558.63" departLane="best" departSpeed="max" from="312662578#0" id="truck202" to="344084911" type="truck_truck_E5" />
    <trip depart="16640.61" departLane="best" departSpeed="max" from="312662578#0" id="truck203" to="360771086#13" type="truck_truck_E5" />
    <trip depart="16722.58" departLane="best" from="118793923#0" id="truck204" to="24295100#1" type="truck_truck_E2" />
    <trip depart="16804.55" departLane="best" departSpeed="max" from="326569955#0" id="truck205" to="24295246#0" type="truck_truck_E6" />
    <trip depart="16886.53" departLane="best" from="320249068#0" id="truck206" to="284927029#2" type="truck_truck_E5" />
    <trip depart="16968.50" departLane="best" departSpeed="max" from="315196302#0" id="truck207" to="24305399#1" type="truck_truck_E6" />
    <trip depart="17050.47" departLane="best" from="24295139#6" id="truck208" to="151181510#1" type="truck_truck_E4" />
    <trip depart="17132.45" departLane="best" from="24295097#0" id="truck209" to="151181510#1" type="truck_truck_E5" />
    <trip depart="17214.42" departLane="best" departSpeed="max" from="312662578#0" id="truck210" to="329505240#2" type="truck_truck_E3" />
    <trip depart="17296.39" departLane="best" from="522768610#6" id="truck211" to="302109830#0" type="truck_truck_E5" />
    <trip depart="17378.37" departLane="best" from="24295254#4" id="truck212" to="118793923#8" type="truck_truck_E5" />
    <trip depart="17460.34" departLane="best" departSpeed="max" from="315196302#0" id="truck213" to="24295139#2" type="truck_truck_E6" />
    <trip depart="17542.32" departLane="best" departSpeed="max" from="326569955#0" id="truck214" to="152762229#0" type="truck_truck_E5" />
    <trip depart="17624.29" departLane="best" from="401494444#5" id="truck215" to="293115460#11" type="truck_truck_E6" />
    <trip depart="17706.26" departLane="best" from="401494444#8" id="truck216" to="317137449#8" type="truck_truck_E5" />
    <trip depart="17788.24" departLane="best" from="156115617#6" id="truck217" to="118793918#4" type="truck_truck_E5" />
    <trip depart="17870.21" departLane="best" from="369135366#0" id="truck218" to="24305294#3" type="truck_truck_E6" />
    <trip depart="17952.18" departLane="best" from="118793920" id="truck219" to="321572180#3" type="truck_truck_E3" />
    <trip depart="18034.16" departLane="best" from="633508215#3" id="truck220" to="151181510#1" type="truck_truck_E5" />
    <trip depart="18116.13" departLane="best" from="360771086#10" id="truck221" to="24295100#1" type="truck_truck_E2" />
    <trip depart="18198.10" departLane="best" from="329876536#1" id="truck222" to="522768610#7" type="truck_truck_E5" />
    <trip depart="18280.08" departLane="best" from="24295136#1" id="truck223" to="24295097#1" type="truck_truck_E5" />
    <trip depart="18362.05" departLane="best" departSpeed="max" from="325447816#0" id="truck224" to="156115617#3" type="truck_truck_E5" />
    <trip depart="18444.02" departLane="best" from="156115617#1" id="truck225" to="118793922#3" type="truck_truck_E4" />
    <trip depart="18526.00" departLane="best" from="-24267146#0" id="truck226" to="284925148#1" type="truck_truck_E6" />
    <trip depart="18607.97" departLane="best" from="321396548#0" id="truck227" to="24295139#7" type="truck_truck_E6" />
    <trip depart="18689.94" departLane="best" from="24295136#20" id="truck228" to="327607511#1" type="truck_truck_E5" />
    <trip depart="18771.92" departLane="best" from="326569903#4" id="truck229" to="496739504#3" type="truck_truck_E4" />
    <trip depart="18853.89" departLane="best" from="360771086#1" id="truck230" to="321572180#1" type="truck_truck_E6" />
    <trip depart="18935.86" departLane="best" departSpeed="max" from="325447816#0" id="truck231" to="522768610#0" type="truck_truck_E6" />
    <trip depart="19017.84" departLane="best" departSpeed="max" from="284927032#0" id="truck232" to="314360433#7" type="truck_truck_E6" />
    <trip depart="19181.78" departLane="best" departSpeed="max" from="24305223#0" id="truck234" to="151181510#1" type="truck_truck_E3" />
    <trip depart="19263.76" departLane="best" from="436478051#2" id="truck235" to="293115460#18" type="truck_truck_E6" />
    <trip depart="19345.73" departLane="best" departSpeed="max" from="314360433#0" id="truck236" to="118793923#1" type="truck_truck_E5" />
    <trip depart="19427.70" departLane="best" from="118793922#3" id="truck237" to="522768611#1" type="truck_truck_E5" />
    <trip depart="19509.68" departLane="best" departSpeed="max" from="396425746" id="truck238" to="317137449#9" type="truck_truck_E6" />
    <trip depart="19591.65" departLane="best" from="-646591409" id="truck239" to="344084911" type="truck_truck_E1" />
    <trip depart="19673.62" departLane="best" from="293115460#8" id="truck240" to="324601502#6" type="truck_truck_E5" />
    <trip depart="19755.60" departLane="best" departSpeed="max" from="436277095#0" id="truck241" to="172580997" type="truck_truck_E2" />
    <trip depart="19837.57" departLane="best" departSpeed="max" from="312662578#0" id="truck242" to="118793923#6" type="truck_truck_E5" />
    <trip depart="19919.54" departLane="best" from="24305286#9" id="truck243" to="24295254#4" type="truck_truck_E4" />