<routes xmlns:xsi="http://www.w3.org/2001/XMLSchema-instance" xsi:noNamespaceSchemaLocation="http://sumo.dlr.de/xsd/routes_file.xsd">
    <vType id="veh_passenger" vClass="passenger" />
    <vType emissionClass="HBEFA3/PC_G_EU4" id="veh_pc_E4" vClass="passenger" />
    <vType emissionClass="HBEFA3/PC_G_EU5" id="veh_pc_E5" vClass="passenger" />
    <vType emissionClass="HBEFA3/PC_G_EU6" id="veh_pc_E6" vClass="passenger" />
    <trip depart="0.00" departLane="best" from="326569903#4" id="veh0" to="111896823#2" type="veh_pc_E6" />
    <trip depart="53.23" departLane="best" from="24305273#6" id="veh1" to="24295136#4" type="veh_pc_E5" />
    <trip depart="106.47" departLane="best" departSpeed="max" from="360771086#0" id="veh2" to="329505437#0" type="veh_pc_E5" />
    <trip depart="159.70" departLane="best" departSpeed="max" from="435546424#0" id="veh3" to="118793923#8" type="veh_pc_E5" />
    <trip depart="212.94" departLane="best" departSpeed="max" from="312662578#0" id="veh4" to="111940154#0" type="veh_pc_E6" />
    <trip depart="266.17" departLane="best" from="24295139#6" id="veh5" to="317137449#7" type="veh_pc_E4" />
    <trip depart="319.41" departLane="best" from="111895261" id="veh6" to="24295136#15" type="veh_pc_E4" />
    <trip depart="372.64" departLane="best" departSpeed="max" from="326569955#0" id="veh7" to="321544196#3" type="veh_pc_E5" />
    <trip depart="479.11" departLane="best" departSpeed="max" from="401494444#0" id="veh9" to="-24267146#0" type="veh_pc_E5" />
    <trip depart="532.35" departLane="best" departSpeed="max" from="401494444#0" id="veh10" to="344084911" type="veh_pc_E5" />
    <trip depart="585.58" departLane="best" from="284925148#0" id="veh11" to="156115617#9" type="veh_pc_E5" />
    <trip depart="638.82" departLane="best" from="522768610#0" id="veh12" to="24305286#9" type="veh_pc_E5" />
    <trip depart="692.05" departLane="best" departSpeed="max" from="401494444#0" id="veh13" to="344372307#2" type="veh_pc_E6" />
    <trip depart="745.29" departLane="best" from="321544178" id="veh14" to="633508213#0" type="veh_pc_E6" />
    <trip depart="798.52" departLane="best" from="293115460#16" id="veh15" to="321572180#2" type="veh_pc_E5" />
    <trip depart="851.76" departLane="best" from="401494444#8" id="veh16" to="324601502#7" type="veh_pc_E4" />
    <trip depart="904.99" departLane="best" from="344084913#11" id="veh17" to="118793920" type="veh_pc_E6" />
    <trip depart="958.23" departLane="best" from="24295147#0" id="veh18" to="24295254#5" type="veh_pc_E6" />
    <trip depart="1011.46" departLane="best" from="118793923#2" id="veh19" to="24295139#2" type="veh_pc_E5" />
    <trip depart="1064.69" departLane="best" from="133242880#1" id="veh20" to="24295250#1" type="veh_pc_E5" />
    <trip depart="1117.93" departLane="best" from="326569903#0" id="veh21" to="24305399#4" type="veh_pc_E5" />
    <trip depart="1171.16" departLane="best" from="293115460#0" id="veh22" to="24295136#20" type="veh_pc_E4" />
    <trip depart="1224.40" departLane="best" from="24305223#4" id="veh23" to="522768610#8" type="veh_pc_E6" />
    <trip depart="1277.63" departLane="best" departSpeed="max" from="326569955#0" id="veh24" to="326569837#4" type="veh_pc_E4" />
    <trip depart="1330.87" departLane="best" departSpeed="max" from="24295123" id="veh25" to="344372307#1" type="veh_pc_E4" />
    <trip depart="1384.10" departLane="best" from="24295100#0" id="veh26" to="284925148#1" type="veh_pc_E5" />
    <trip depart="1437.34" departLane="best" from="633508213#5" id="veh27" to="327607339#0" type="veh_pc_E5" />
    <trip depart="1490.57" departLane="best" from="321572180#6" id="veh28" to="329876536#0" type="veh_pc_E4" />
    <trip depart="1543.81" departLane="best" from="401494444#3" id="veh29" to="369135366#0" type="veh_pc_E5" />
    <trip depart="1597.04" departLane="best" from="24295147#1" id="veh30" to="111940154#1" type="veh_pc_E6" />
    <trip depart="1650.28" departLane="best" from="24305365#4" id="veh31" to="24295246#3" type="veh_pc_E6" />
    <trip depart="1703.51" departLane="best" from="24295139#2" id="veh32" to="522768610#8" type="veh_pc_E5" />
    <trip depart="1756.75" departLane="best" departSpeed="max" from="435541876#0" id="veh33" to="24305273#6" type="veh_pc_E5" />
    <trip depart="1809.98" departLane="best" from="327607339#0" id="veh34" to="284927029#2" type="veh_pc_E5" />
    <trip depart="1863.22" departLane="best" from="321572180#8" id="veh35" to="24295246#0" type="veh_pc_E5" />
    <trip depart="1916.45" departLane="best" from="324924047#1" id="veh36" to="436478051#2" type="veh_pc_E6" />
    <trip depart="1969.69" departLane="best" from="302109830#1" id="veh37" to="24295136#21" type="veh_pc_E6" />
    <trip depart="2022.92" departLane="best" from="633508215#3" id="veh38" to="317137449#9" type="veh_pc_E6" />
    <trip depart="2076.16" departLane="best" from="118793923#7" id="veh39" to="118793920" type="veh_pc_E6" />
    <trip depart="2129.39" departLane="best" from="152762229#0" id="veh40" to="326569902#5" type="veh_pc_E6" />
    <trip depart="2182.62" departLane="best" departSpeed="max" from="401494444#0" id="veh41" to="293115460#17" type="veh_pc_E5" />
    <trip depart="2235.86" departLane="best" from="118793921#3" id="veh42" to="284925148#1" type="veh_pc_E6" />
    <trip depart="2289.09" departLane="best" from="633508215#3" id="veh43" to="320601926#1" type="veh_pc_E4" />
    <trip depart="2395.56" departLane="best" departSpeed="max" from="-24295097#1" id="veh45" to="344084913#7" type="veh_pc_E6" />
    <trip depart="2448.80" departLane="best" from="329505240#5" id="veh46" to="321396548#3" type="veh_pc_E5" />
    <trip depart="2502.03" departLane="best" from="24305223#4" id="veh47" to="327607339#0" type="veh_pc_E4" />
    <trip depart="2555.27" departLane="best" from="152762229#1" id="veh48" to="293115460#3" type="veh_pc_E4" />
    <trip depart="2608.50" departLane="best" from="314360433#4" id="veh49" to="522768611#1" type="veh_pc_E5" />
    <trip depart="2661.74" departLane="best" departSpeed="max" from="435541876#0" id="veh50" to="24295246#1" type="veh_pc_E5" />
    <trip depart="2714.97" departLane="best" from="317137449#14" id="veh51" to="24295097#1" type="veh_pc_E5" />
    <trip depart="2768.21" departLane="best" departSpeed="max" from="436277095#0" id="veh52" to="436277095#7" type="veh_pc_E6" />
    <trip depart="2821.44" departLane="best" from="24305286#9" id="veh53" to="327607339#0" type="veh_pc_E6" />
    <trip depart="2874.68" departLane="best" from="326569837#0" id="veh54" to="156115617#8" type="veh_pc_E5" />
    <trip depart="2981.15" departLane="best" from="-133242880#1" id="veh56" to="24305286#10" type="veh_pc_E5" />
    <trip depart="3034.38" departLane="best" from="-344372307#2" id="veh57" to="522768610#6" type="veh_pc_E5" />
    <trip depart="3087.62" departLane="best" departSpeed="max" from="435541876#0" id="veh58" to="401494444#3" type="veh_pc_E4" />
    <trip depart="3140.85" departLane="best" from="24305365#1" id="veh59" to="118793921#4" type="veh_pc_E4" />
    <trip depart="3194.09" departLane="best" departSpeed="max" from="435541876#0" id="veh60" to="522768611#0" type="veh_pc_E4" />
    <trip depart="3300.55" departLane="best" from="118793922#0" id="veh62" to="360771086#23" type="veh_pc_E6" />
    <trip depart="3353.79" departLane="best" from="360771086#3" id="veh63" to="152762229#8" type="veh_pc_E4" />
    <trip depart="3407.02" departLane="best" departSpeed="max" from="315196302#0" id="veh64" to="321572180#1" type="veh_pc_E5" />
    <trip depart="3460.26" departLane="best" from="24305223#3" id="veh65" to="436277095#7" type="veh_pc_E5" />
    <trip depart="3513.49" departLane="best" departSpeed="max" from="312662578#0" id="veh66" to="24295136#21" type="veh_pc_E6" />
    <trip depart="3566.73" departLane="best" from="321544196#2" id="veh67" to="344372307#2" type="veh_pc_E4" />
    <trip depart="3619.96" departLane="best" from="24295136#4" id="veh68" to="24305273#3" type="veh_pc_E5" />
    <trip depart="3673.20" departLane="best" from="633508215#0" id="veh69" to="327607511#0" type="veh_pc_E6" />
    <trip depart="3726.43" departLane="best" departSpeed="max" from="314360433#0" id="veh70" to="320249068#3" type="veh_pc_E4" />
    <trip depart="3779.67" departLane="best" from="279653481#6" id="veh71" to="324923340" type="veh_pc_E6" />
    <trip depart="3832.90" departLane="best" from="24295246#0" id="veh72" to="24295136#21" type="veh_pc_E6" />
    <trip depart="3886.14" departLane="best" from="118793922#0" id="veh73" to="326569903#0" type="veh_pc_E6" />
    <trip depart="3939.37" departLane="best" from="24295147#1" id="veh74" to="496739504#1" type="veh_pc_E5" />
    <trip depart="3992.61" departLane="best" from="401494444#6" id="veh75" to="118793923#2" type="veh_pc_E6" />
    <trip depart="4045.84" departLane="best" from="24295246#3" id="veh76" to="329505240#0" type="veh_pc_E5" />
    <trip depart="4099.08" departLane="best" from="24295139#3" id="veh77" to="153125093#0" type="veh_pc_E4" />
    <trip depart="4152.31" departLane="best" from="436478051#1" id="veh78" to="324601502#3" type="veh_pc_E4" />
    <trip depart="4205.55" departLane="best" departSpeed="max" from="401494444#0" id="veh79" to="24295136#11" type="veh_pc_E4" />
    <trip depart="4258.78" departLane="best" departSpeed="max" from="133242880#0" id="veh80" to="293115460#18" type="veh_pc_E5" />
    <trip depart="4312.01" departLane="best" departSpeed="max" from="312662578#0" id="veh81" to="314360433#4" type="veh_pc_E4" />
    <trip depart="4365.25" departLane="best" from="344372307#2" id="veh82" to="329505240#4" type="veh_pc_E5" />
    <trip depart="4418.48" departLane="best" from="633508213#0" id="veh83" to="151181510#1" type="veh_pc_E4" />
    <trip depart="4471.72" departLane="best" departSpeed="max" from="312662578#0" id="veh84" to="24305294#0" type="veh_pc_E6" />
    <trip depart="4524.95" departLane="best" from="401494444#8" id="veh85" to="24295139#7" type="veh_pc_E5" />
    <trip depart="4578.19" departLane="best" from="24295136#16" id="veh86" to="302109830#0" type="veh_pc_E5" />
    <trip depart="4631.42" departLane="best" departSpeed="max" from="312662578#0" id="veh87" to="24295250#1" type="veh_pc_E4" />
    <trip depart="4684.66" departLane="best" from="321572180#3" id="veh88" to="118793921#1" type="veh_pc_E4" />
    <trip depart="4737.89" departLane="best" from="684284130" id="veh89" to="401494444#4" type="veh_pc_E6" />
    <trip depart="4791.13" departLane="best" from="401494444#4" id="veh90" to="172580997" type="veh_pc_E6" />
    <trip depart="4844.36" departLane="best" departSpeed="max" from="317137449#0" id="veh91" to="24295136#21" type="veh_pc_E6" />
    <trip depart="4897.60" departLane="best" from="302109830#2" id="veh92" to="118793921#5" type="veh_pc_E5" />
    <trip depart="4950.83" departLane="best" from="293115460#16" id="veh93" to="633508215#3" type="veh_pc_E6" />
    <trip depart="5057.30" departLane="best" from="314360433#5" id="veh95" to="293115460#18" type="veh_pc_E6" />
    <trip depart="5110.54" departLane="best" from="522768610#0" id="veh96" to="633508215#4" type="veh_pc_E5" />
    <trip depart="5163.77" departLane="best" from="321572180#6" id="veh97" to="344084913#5" type="veh_pc_E5" />
    <trip depart="5217.01" departLane="best" from="156115617#6" id="veh98" to="24295254#6" type="veh_pc_E5" />
    <trip depart="5270.24" departLane="best" from="522768610#5" id="veh99" to="324601502#7" type="veh_pc_E4" />
    <trip depart="5323.47" departLane="best" from="321572180#0" id="veh100" to="360771086#20" type="veh_pc_E4" />
    <trip depart="5376.71" departLane="best" from="118793921#0" id="veh101" to="324601502#7" type="veh_pc_E6" />
    <trip depart="5429.94" departLane="best" from="317137449#17" id="veh102" to="435541876#1" type="veh_pc_E4" />
    <trip depart="5483.18" departLane="best" from="156115617#7" id="veh103" to="522768611#1" type="veh_pc_E5" />
    <trip depart="5536.41" departLane="best" from="118793923#2" id="veh104" to="24295100#1" type="veh_pc_E5" />
    <trip depart="5589.65" departLane="best" departSpeed="max" from="325447816#0" id="veh105" to="329505241#1" type="veh_pc_E4" />
    <trip depart="5642.88" departLane="best" from="24295246#2" id="veh106" to="152762229#4" type="veh_pc_E4" />
    <trip depart="5696.12" departLane="best" departSpeed="max" from="435546424#0" id="veh107" to="24295139#7" type="veh_pc_E5" />
    <trip depart="5749.35" departLane="best" departSpeed="max" from="325447816#0" id="veh108" to="326569902#2" type="veh_pc_E6" />
    <trip depart="5802.59" departLane="best" departSpeed="max" from="312662578#0" id="veh109" to="324601502#7" type="veh_pc_E5" />
    <trip depart="5855.82" departLane="best" from="320249068#3" id="veh110" to="522768610#8" type="veh_pc_E4" />
    <trip depart="5909.06" departLane="best" from="24295136#8" id="veh111" to="344084913#4" type="veh_pc_E5" />
    <trip depart="5962.29" departLane="best" from="24295246#4" id="veh112" to="284927029#2" type="veh_pc_E5" />
    <trip depart="6015.53" departLane="best" from="327607511#1" id="veh113" to="24295254#6" type="veh_pc_E4" />
    <trip depart="6068.76" departLane="best" from="24305365#5" id="veh114" to="360771086#22" type="veh_pc_E6" />
    <trip depart="6122.00" departLane="best" from="118793922#3" id="veh115" to="314360433#1" type="veh_pc_E5" />
    <trip depart="6175.23" departLane="best" from="646591409" id="veh116" to="633508215#4" type="veh_pc_E4" />
    <trip depart="6228.47" departLane="best" from="118793922#3" id="veh117" to="24295136#21" type="veh_pc_E6" />
    <trip depart="6281.70" departLane="best" from="24305223#3" id="veh118" to="522768610#8" type="veh_pc_E5" />
    <trip depart="6334.94" departLane="best" departSpeed="max" from="435541876#0" id="veh119" to="436287845#0" type="veh_pc_E6" />
    <trip depart="6388.17" departLane="best" from="293115460#0" id="veh120" to="156115617#9" type="veh_pc_E6" />
    <trip depart="6441.40" departLane="best" from="401494444#14" id="veh121" to="344084913#0" type="veh_pc_E4" />
    <trip depart="6494.64" departLane="best" departSpeed="max" from="326569955#0" id="veh122" to="-24295097#0" type="veh_pc_E5" />
    <trip depart="6547.87" departLane="best" from="327607339#2" id="veh123" to="522768610#8" type="veh_pc_E5" />
    <trip depart="6601.11" departLane="best" from="152762229#8" id="veh124" to="152762229#11" type="veh_pc_E4" />
    <trip depart="6654.34" departLane="best" from="151073587#1" id="veh125" to="321572180#3" type="veh_pc_E4" />
    <trip depart="6707.58" departLane="best" from="24305273#4" id="veh126" to="326569837#0" type="veh_pc_E5" />
    <trip depart="6760.81" departLane="best" from="344084913#7" id="veh127" to="24295136#17" type="veh_pc_E5" />
    <trip depart="6814.05" departLane="best" from="326569902#5" id="veh128" to="24295246#1" type="veh_pc_E6" />
    <trip depart="6867.28" departLane="best" from="317137449#1" id="veh129" to="496739504#1" type="veh_pc_E5" />
    <trip depart="6920.52" departLane="best" from="401494444#3" id="veh130" to="118793923#8" type="veh_pc_E5" />
    <trip depart="6973.75" departLane="best" departSpeed="max" from="312662578#0" id="veh131" to="24295250#1" type="veh_pc_E6" />
    <trip depart="7026.99" departLane="best" departSpeed="max" from="-24267146#1" id="veh132" to="360771086#7" type="veh_pc_E4" />
    <trip depart="7080.22" departLane="best" from="326569903#1" id="veh133" to="24295246#0" type="veh_pc_E4" />
    <trip depart="7133.46" departLane="best" departSpeed="max" from="360771086#0" id="veh134" to="321572180#2" type="veh_pc_E4" />
    <trip depart="7186.69" departLane="best" departSpeed="max" from="314360433#0" id="veh135" to="-344372307#0" type="veh_pc_E5" />
    <trip depart="7239.93" departLane="best" from="118793923#0" id="veh136" to="436287845#0" type="veh_pc_E6" />
    <trip depart="7293.16" departLane="best" departSpeed="max" from="436277095#0" id="veh137" to="321544196#3" type="veh_pc_E4" />
    <trip depart="7399.63" departLane="best" from="156115617#3" id="veh139" to="152762229#8" type="veh_pc_E4" />
    <trip depart="7452.86" departLane="best" from="24305365#1" id="veh140" to="436478051#2" type="veh_pc_E6" />
    <trip depart="7559.33" departLane="best" from="435546424#1" id="veh142" to="24295136#20" type="veh_pc_E6" />
    <trip depart="7612.57" departLane="best" from="24295254#5" id="veh143" to="151181510#1" type="veh_pc_E4" />
    <trip depart="7665.80" departLane="best" from="369135366#1" id="veh144" to="436287845#0" type="veh_pc_E6" />
    <trip depart="7719.04" departLane="best" departSpeed="max" from="312662578#0" id="veh145" to="326569902#2" type="veh_pc_E4" />
    <trip depart="7772.27" departLane="best" from="156115617#6" id="veh146" to="522768610#6" type="veh_pc_E4" />
    <trip depart="7825.51" departLane="best" from="401494444#8" id="veh147" to="633508213#1" type="veh_pc_E4" />
    <trip depart="7878.74" departLane="best" departSpeed="max" from="401494444#0" id="veh148" to="436287845#0" type="veh_pc_E6" />
    <trip depart="7931.98" departLane="best" from="111895261" id="veh149" to="360771086#13" type="veh_pc_E4" />
    <trip depart="7985.21" departLane="best" departSpeed="max" from="279653481#0" id="veh150" to="522768610#6" type="veh_pc_E6" />
    <trip depart="8038.45" departLane="best" departSpeed="max" from="401494444#0" id="veh151" to="436277095#3" type="veh_pc_E5" />
    <trip depart="8091.68" departLane="best" departSpeed="max" from="401494444#0" id="veh152" to="24295246#2" type="veh_pc_E6" />
    <trip depart="8144.92" departLane="best" departSpeed="max" from="396425746" id="veh153" to="152762229#1" type="veh_pc_E5" />
    <trip depart="8251.39" departLane="best" from="24295146#0" id="veh155" to="401494444#15" type="veh_pc_E5" />
    <trip depart="8304.62" departLane="best" from="314360433#6" id="veh156" to="24305223#3" type="veh_pc_E5" />
    <trip depart="8357.86" departLane="best" departSpeed="max" from="401494444#0" id="veh157" to="24295136#8" type="veh_pc_E6" />
    <trip depart="8411.09" departLane="best" from="-684284130" id="veh158" to="24295136#12" type="veh_pc_E4" />
    <trip depart="8464.33" departLane="best" departSpeed="max" from="279653481#0" id="veh159" to="436277095#4" type="veh_pc_E4" />
    <trip depart="8517.56" departLane="best" from="522768610#4" id="veh160" to="24295250#1" type="veh_pc_E4" />
    <trip depart="8570.79" departLane="best" from="633508213#0" id="veh161" to="321396548#3" type="veh_pc_E6" />
    <trip depart="8624.03" departLane="best" from="496739503" id="veh162" to="152762229#11" type="veh_pc_E5" />
    <trip depart="8677.26" departLane="best" from="152762229#0" id="veh163" to="293115460#3" type="veh_pc_E4" />
    <trip depart="8730.50" departLane="best" from="344372307#2" id="veh164" to="24305273#5" type="veh_pc_E6" />
    <trip depart="8783.73" departLane="best" departSpeed="max" from="325447816#0" id="veh165" to="320249039#0" type="veh_pc_E5" />
    <trip depart="8836.97" departLane="best" from="293115460#4" id="veh166" to="324601502#7" type="veh_pc_E5" />
    <trip depart="8890.20" departLane="best" departSpeed="max" from="24305223#0" id="veh167" to="344084913#13" type="veh_pc_E4" />
    <trip depart="8943.44" departLane="best" from="321544196#0" id="veh168" to="344084913#7" type="veh_pc_E4" />
    <trip depart="8996.67" departLane="best" from="360771086#1" id="veh169" to="329505240#1" type="veh_pc_E5" />
    <trip depart="9049.91" departLane="best" from="293115457#1" id="veh170" to="118793923#2" type="veh_pc_E4" />
    <trip depart="9103.14" departLane="best" from="327607339#2" id="veh171" to="24305286#5" type="veh_pc_E6" />
    <trip depart="9156.38" departLane="best" from="24305365#4" id="veh172" to="401494444#8" type="veh_pc_E6" />
    <trip depart="9209.61" departLane="best" from="344084913#8" id="veh173" to="24295254#6" type="veh_pc_E5" />
    <trip depart="9262.85" departLane="best" from="24305365#2" id="veh174" to="293115457#3" type="veh_pc_E6" />
    <trip depart="9316.08" departLane="best" departSpeed="max" from="312662578#0" id="veh175" to="24295254#6" type="veh_pc_E4" />
    <trip depart="9369.32" departLane="best" from="152762229#4" id="veh176" to="293115460#17" type="veh_pc_E4" />
    <trip depart="9422.55" departLane="best" from="496739503" id="veh177" to="329505437#0" type="veh_pc_E4" />
    <trip depart="9475.79" departLane="best" from="435546424#2" id="veh178" to="326569902#0" type="veh_pc_E6" />
    <trip depart="9529.02" departLane="best" from="24305294#0" id="veh179" to="321572180#0" type="veh_pc_E6" />
    <trip depart="9582.25" departLane="best" from="-133242880#1" id="veh180" to="24295254#4" type="veh_pc_E5" />
    <trip depart="9635.49" departLane="best" departSpeed="max" from="314360433#0" id="veh181" to="324601502#7" type="veh_pc_E6" />
    <trip depart="9688.72" departLane="best" from="327607339#0" id="veh182" to="314360433#4" type="veh_pc_E4" />
    <trip depart="9741.96" departLane="best" from="314360433#1" id="veh183" to="24295136#21" type="veh_pc_E5" />
    <trip depart="9795.19" departLane="best" departSpeed="max" from="315196302#0" id="veh184" to="496739503" type="veh_pc_E6" />
    <trip depart="9848.43" departLane="best" departSpeed="max" from="401494444#0" id="veh185" to="24267146#0" type="veh_pc_E6" />
    <trip depart="9901.66" departLane="best" from="326569902#5" id="veh186" to="24305286#8" type="veh_pc_E5" />
    <trip depart="9954.90" departLane="best" from="401494444#11" id="veh187" to="360771086#22" type="veh_pc_E5" />
    <trip depart="10008.13" departLane="best" from="327607511#1" id="veh188" to="24295136#5" type="veh_pc_E5" />
    <trip depart="10061.37" departLane="best" from="24295136#20" id="veh189" to="111896823#2" type="veh_pc_E5" />
    <trip depart="10114.60" departLane="best" from="401494444#4" id="veh190" to="118793923#3" type="veh_pc_E5" />
    <trip depart="10167.84" departLane="best" departSpeed="max" from="312662578#0" id="veh191" to="326569903#0" type="veh_pc_E6" />
    <trip depart="10221.07" departLane="best" from="24295136#18" id="veh192" to="344084911" type="veh_pc_E6" />
    <trip depart="10274.31" departLane="best" from="327607339#0" id="veh193" to="-133242880#1" type="veh_pc_E6" />
    <trip depart="10327.54" departLane="best" from="360771086#15" id="veh194" to="360771086#7" type="veh_pc_E4" />
    <trip depart="10380.78" departLane="best" departSpeed="max" from="151073587#0" id="veh195" to="293115460#18" type="veh_pc_E5" />
    <trip depart="10434.01" departLane="best" from="24295136#1" id="veh196" to="522768611#1" type="veh_pc_E6" />
    <trip depart="10487.25" departLane="best" from="320249039#2" id="veh197" to="118793921#1" type="veh_pc_E4" />
    <trip depart="10540.48" departLane="best" from="314360433#5" id="veh198" to="401494444#14" type="veh_pc_E4" />
    <trip depart="10593.72" departLane="best" from="327607511#0" id="veh199" to="633508215#4" type="veh_pc_E6" />
    <trip depart="10646.95" departLane="best" departSpeed="max" from="325447816#0" id="veh200" to="522768611#1" type="veh_pc_E6" />
    <trip depart="10700.18" departLane="best" departSpeed="max" from="435546424#0" id="veh201" to="326569902#0" type="veh_pc_E6" />
    <trip depart="10753.42" departLane="best" from="344084913#8" id="veh202" to="317137449#7" type="veh_pc_E5" />
    <trip depart="10806.65" departLane="best" from="401494444#14" id="veh203" to="321572180#0" type="veh_pc_E6" />
    <trip depart="10859.89" departLane="best" departSpeed="max" from="315196302#0" id="veh204" to="24295147#0" type="veh_pc_E6" />
    <trip depart="10913.12" departLane="best" from="326569902#4" id="veh205" to="24295250#1" type="veh_pc_E5" />
    <trip depart="10966.36" departLane="best" from="118793923#1" id="veh206" to="24295254#0" type="veh_pc_E4" />
    <trip depart="11019.59" departLane="best" from="321544196#3" id="veh207" to="156115617#2" type="veh_pc_E5" />
    <trip depart="11072.83" departLane="best" from="24295246#0" id="veh208" to="344084911" type="veh_pc_E5" />
    <trip depart="11126.06" departLane="best" from="344084913#13" id="veh209" to="118793922#3" type="veh_pc_E4" />
    <trip depart="11179.30" departLane="best" departSpeed="max" from="312662578#0" id="veh210" to="321544196#0" type="veh_pc_E5" />
    <trip depart="11232.53" departLane="best" departSpeed="max" from="312662578#0" id="veh211" to="24295136#18" type="veh_pc_E4" />
    <trip depart="11285.77" departLane="best" departSpeed="max" from="312662578#0" id="veh212" to="496739504#1" type="veh_pc_E5" />
    <trip depart="11339.00" departLane="best" from="324924047#1" id="veh213" to="344084911" type="veh_pc_E5" />
    <trip depart="11392.24" departLane="best" from="401494444#6" id="veh214" to="360771086#4" type="veh_pc_E6" />
    <trip depart="11445.47" departLane="best" departSpeed="max" from="284927032#0" id="veh215" to="360771086#23" type="veh_pc_E4" />
    <trip depart="11498.71" departLane="best" from="401494444#5" id="veh216" to="522768611#1" type="veh_pc_E6" />
    <trip depart="11551.94" departLane="best" departSpeed="max" from="312662578#0" id="veh217" to="360771086#20" type="veh_pc_E5" />
    <trip depart="11605.18" departLane="best" from="321572180#1" id="veh218" to="324924047#2" type="veh_pc_E6" />
    <trip depart="11711.64" departLane="best" departSpeed="max" from="314360433#0" id="veh220" to="111940154#0" type="veh_pc_E6" />
    <trip depart="11764.88" departLane="best" from="279653481#3" id="veh221" to="329505437#0" type="veh_pc_E6" />
    <trip depart="11818.11" departLane="best" departSpeed="max" from="312662578#0" id="veh222" to="172580997" type="veh_pc_E4" />
    <trip depart="11871.35" departLane="best" from="314360433#9" id="veh223" to="152762229#8" type="veh_pc_E6" />
    <trip depart="11924.58" departLane="best" from="326569902#2" id="veh224" to="111896823#3" type="veh_pc_E5" />
    <trip depart="11977.82" departLane="best" from="293115460#8" id="veh225" to="321572180#8" type="veh_pc_E6" />
    <trip depart="12031.05" departLane="best" from="152762229#9" id="veh226" to="314360433#2" type="veh_pc_E4" />
    <trip depart="12084.29" departLane="best" from="118793919#0" id="veh227" to="284925148#1" type="veh_pc_E5" />
    <trip depart="12137.52" departLane="best" from="360771086#21" id="veh228" to="284925148#1" type="veh_pc_E6" />
    <trip depart="12190.76" departLane="best" departSpeed="max" from="24305223#0" id="veh229" to="118793923#8" type="veh_pc_E6" />
    <trip depart="12243.99" departLane="best" from="684284130" id="veh230" to="24305365#3" type="veh_pc_E6" />
    <trip depart="12297.23" departLane="best" departSpeed="max" from="326569955#0" id="veh231" to="369135366#1" type="veh_pc_E5" />
    <trip depart="12350.46" departLane="best" departSpeed="max" from="326569955#0" id="veh232" to="360771086#23" type="veh_pc_E5" />
    <trip depart="12403.70" departLane="best" from="496739504#3" id="veh233" to="24295136#15" type="veh_pc_E4" />
    <trip depart="12456.93" departLane="best" from="-344372307#2" id="veh234" to="156115617#8" type="veh_pc_E4" />
    <trip depart="12510.17" departLane="best" from="324601502#0" id="veh235" to="24295136#21" type="veh_pc_E4" />
    <trip depart="12563.40" departLane="best" from="344084913#0" id="veh236" to="360771086#4" type="veh_pc_E6" />
    <trip depart="12616.64" departLane="best" departSpeed="max" from="24295123" id="veh237" to="326569837#1" type="veh_pc_E6" />
    <trip depart="12669.87" departLane="best" from="360771086#13" id="veh238" to="152762229#11" type="veh_pc_E4" />
    <trip depart="12723.11" departLane="best" from="401494444#11" id="veh239" to="522768611#1" type="veh_pc_E5" />
    <trip depart="12776.34" departLane="best" from="151073587#1" id="veh240" to="111896823#2" type="veh_pc_E5" />
    <trip depart="12829.57" departLane="best" from="24305365#3" id="veh241" to="329505437#0" type="veh_pc_E6" />
    <trip depart="12882.81" departLane="best" from="522768610#0" id="veh242" to="284927029#2" type="veh_pc_E6" />
    <trip depart="12936.04" departLane="best" from="344084913#5" id="veh243" to="118793923#5" type="veh_pc_E4" />
    <trip depart="12989.28" departLane="best" from="329876536#0" id="veh244" to="326569902#5" type="veh_pc_E6" />
    <trip depart="13042.51" departLane="best" departSpeed="max" from="151073587#0" id="veh245" to="360771086#8" type="veh_pc_E4" />
    <trip depart="13095.75" departLane="best" from="152762229#11" id="veh246" to="633508215#0" type="veh_pc_E6" />
    <trip depart="13148.98" departLane="best" from="369135366#1" id="veh247" to="24305365#2" type="veh_pc_E5" />
    <trip depart="13202.22" departLane="best" departSpeed="max" from="314360433#0" id="veh248" to="279653481#7" type="veh_pc_E6" />
    <trip depart="13255.45" departLane="best" from="401494444#4" id="veh249" to="401494444#15" type="veh_pc_E4" />
    <trip depart="13308.69" departLane="best" from="326569903#0" id="veh250" to="401494444#2" type="veh_pc_E5" />
    <trip depart="13361.92" departLane="best" from="344084913#13" id="veh251" to="293115460#4" type="veh_pc_E4" />
    <trip depart="13415.16" departLane="best" departSpeed="max" from="360771086#0" id="veh252" to="522768611#1" type="veh_pc_E6" />
    <trip depart="13468.39" departLane="best" from="24305273#2" id="veh253" to="401494444#15" type="veh_pc_E6" />
    <trip depart="13521.63" departLane="best" from="321544196#0" id="veh254" to="314360433#9" type="veh_pc_E6" />
    <trip depart="13574.86" departLane="best" departSpeed="max" from="314360433#0" id="veh255" to="344372307#2" type="veh_pc_E4" />
    <trip depart="13628.10" departLane="best" from="24305225" id="veh256" to="435541876#1" type="veh_pc_E4" />
    <trip depart="13681.33" departLane="best" from="401494444#14" id="veh257" to="118793923#8" type="veh_pc_E6" />
    <trip depart="13734.57" departLane="best" departSpeed="max" from="435541876#0" id="veh258" to="24295139#7" type="veh_pc_E5" />
    <trip depart="13787.80" departLane="best" from="401494444#4" id="veh259" to="24295100#0" type="veh_pc_E5" />