<routes xmlns:xsi="http://www.w3.org/2001/XMLSchema-instance" xsi:noNamespaceSchemaLocation="http://sumo.dlr.de/xsd/routes_file.xsd">
    <vType id="veh_passenger" vClass="passenger" />
    <vType emissionClass="HBEFA3/PC_G_EU4" id="veh_pc_E4" vClass="passenger" />
    <vType emissionClass="HBEFA3/PC_G_EU5" id="veh_pc_E5" vClass="passenger" />
    <vType emissionClass="HBEFA3/PC_G_EU6" id="veh_pc_E6" vClass="passenger" />
    <trip depart="0.00" departLane="best" from="326569903#4" id="veh0" to="111896823#2" type="veh_pc_E4" />
    <trip depart="28.12" departLane="best" from="24305273#6" id="veh1" to="24295136#4" type="veh_pc_E6" />
    <trip depart="56.25" departLane="best" departSpeed="max" from="360771086#0" id="veh2" to="329505437#0" type="veh_pc_E5" />
    <trip depart="84.38" departLane="best" departSpeed="max" from="435546424#0" id="veh3" to="118793923#8" type="veh_pc_E4" />
    <trip depart="112.50" departLane="best" departSpeed="max" from="312662578#0" id="veh4" to="111940154#0" type="veh_pc_E5" />
    <trip depart="140.62" departLane="best" from="24295139#6" id="veh5" to="317137449#7" type="veh_pc_E5" />
    <trip depart="168.75" departLane="best" from="111895261" id="veh6" to="24295136#15" type="veh_pc_E4" />
    <trip depart="196.88" departLane="best" departSpeed="max" from="326569955#0" id="veh7" to="321544196#3" type="veh_pc_E5" />
    <trip depart="253.12" departLane="best" departSpeed="max" from="401494444#0" id="veh9" to="-24267146#0" type="veh_pc_E4" />
    <trip depart="281.25" departLane="best" departSpeed="max" from="401494444#0" id="veh10" to="344084911" type="veh_pc_E6" />
    <trip depart="309.38" departLane="best" from="284925148#0" id="veh11" to="156115617#9" type="veh_pc_E5" />
    <trip depart="337.50" departLane="best" from="522768610#0" id="veh12" to="24305286#9" type="veh_pc_E5" />
    <trip depart="365.62" departLane="best" departSpeed="max" from="401494444#0" id="veh13" to="344372307#2" type="veh_pc_E4" />
    <trip depart="393.75" departLane="best" from="321544178" id="veh14" to="633508213#0" type="veh_pc_E4" />
    <trip depart="421.88" departLane="best" from="293115460#16" id="veh15" to="321572180#2" type="veh_pc_E6" />
    <trip depart="450.00" departLane="best" from="401494444#8" id="veh16" to="324601502#7" type="veh_pc_E6" />
    <trip depart="478.12" departLane="best" from="344084913#11" id="veh17" to="118793920" type="veh_pc_E6" />
    <trip depart="506.25" departLane="best" from="24295147#0" id="veh18" to="24295254#5" type="veh_pc_E6" />
    <trip depart="534.38" departLane="best" from="118793923#2" id="veh19" to="24295139#2" type="veh_pc_E5" />
    <trip depart="562.50" departLane="best" from="133242880#1" id="veh20" to="24295250#1" type="veh_pc_E4" />
    <trip depart="590.62" departLane="best" from="326569903#0" id="veh21" to="24305399#4" type="veh_pc_E6" />
    <trip depart="618.75" departLane="best" from="293115460#0" id="veh22" to="24295136#20" type="veh_pc_E6" />
    <trip depart="646.88" departLane="best" from="24305223#4" id="veh23" to="522768610#8" type="veh_pc_E5" />
    <trip depart="675.00" departLane="best" departSpeed="max" from="326569955#0" id="veh24" to="326569837#4" type="veh_pc_E5" />
    <trip depart="703.12" departLane="best" departSpeed="max" from="24295123" id="veh25" to="344372307#1" type="veh_pc_E6" />
    <trip depart="731.25" departLane="best" from="24295100#0" id="veh26" to="284925148#1" type="veh_pc_E4" />
    <trip depart="759.38" departLane="best" from="633508213#5" id="veh27" to="327607339#0" type="veh_pc_E6" />
    <trip depart="787.50" departLane="best" from="321572180#6" id="veh28" to="329876536#0" type="veh_pc_E4" />
    <trip depart="815.62" departLane="best" from="401494444#3" id="veh29" to="369135366#0" type="veh_pc_E4" />
    <trip depart="843.75" departLane="best" from="24295147#1" id="veh30" to="111940154#1" type="veh_pc_E5" />
    <trip depart="871.88" departLane="best" from="24305365#4" id="veh31" to="24295246#3" type="veh_pc_E4" />
    <trip depart="900.00" departLane="best" from="24295139#2" id="veh32" to="522768610#8" type="veh_pc_E6" />
    <trip depart="928.12" departLane="best" departSpeed="max" from="435541876#0" id="veh33" to="24305273#6" type="veh_pc_E5" />
    <trip depart="956.25" departLane="best" from="327607339#0" id="veh34" to="284927029#2" type="veh_pc_E6" />
    <trip depart="984.38" departLane="best" from="321572180#8" id="veh35" to="24295246#0" type="veh_pc_E5" />
    <trip depart="1012.50" departLane="best" from="324924047#1" id="veh36" to="436478051#2" type="veh_pc_E6" />
    <trip depart="1040.62" departLane="best" from="302109830#1" id="veh37" to="24295136#21" type="veh_pc_E6" />
    <trip depart="1068.75" departLane="best" from="633508215#3" id="veh38" to="317137449#9" type="veh_pc_E5" />
    <trip depart="1096.88" departLane="best" from="118793923#7" id="veh39" to="118793920" type="veh_pc_E6" />
    <trip depart="1125.00" departLane="best" from="152762229#0" id="veh40" to="326569902#5" type="veh_pc_E4" />
    <trip depart="1153.12" departLane="best" departSpeed="max" from="401494444#0" id="veh41" to="293115460#17" type="veh_pc_E6" />
    <trip depart="1181.25" departLane="best" from="118793921#3" id="veh42" to="284925148#1" type="veh_pc_E4" />
    <trip depart="1209.38" departLane="best" from="633508215#3" id="veh43" to="320601926#1" type="veh_pc_E6" />
    <trip depart="1265.62" departLane="best" departSpeed="max" from="-24295097#1" id="veh45" to="344084913#7" type="veh_pc_E6" />
    <trip depart="1293.75" departLane="best" from="329505240#5" id="veh46" to="321396548#3" type="veh_pc_E5" />
    <trip depart="1321.88" departLane="best" from="24305223#4" id="veh47" to="327607339#0" type="veh_pc_E4" />
    <trip depart="1350.00" departLane="best" from="152762229#1" id="veh48" to="293115460#3" type="veh_pc_E4" />
    <trip depart="1378.12" departLane="best" from="314360433#4" id="veh49" to="522768611#1" type="veh_pc_E5" />
    <trip depart="1406.25" departLane="best" departSpeed="max" from="435541876#0" id="veh50" to="24295246#1" type="veh_pc_E5" />
    <trip depart="1434.38" departLane="best" from="317137449#14" id="veh51" to="24295097#1" type="veh_pc_E5" />
    <trip depart="1462.50" departLane="best" departSpeed="max" from="436277095#0" id="veh52" to="436277095#7" type="veh_pc_E5" />
    <trip depart="1490.62" departLane="best" from="24305286#9" id="veh53" to="327607339#0" type="veh_pc_E5" />
    <trip depart="1518.75" departLane="best" from="326569837#0" id="veh54" to="156115617#8" type="veh_pc_E6" />
    <trip depart="1575.00" departLane="best" from="-133242880#1" id="veh56" to="24305286#10" type="veh_pc_E6" />
    <trip depart="1603.12" departLane="best" from="-344372307#2" id="veh57" to="522768610#6" type="veh_pc_E6" />
    <trip depart="1631.25" departLane="best" departSpeed="max" from="435541876#0" id="veh58" to="401494444#3" type="veh_pc_E5" />
    <trip depart="1659.38" departLane="best" from="24305365#1" id="veh59" to="118793921#4" type="veh_pc_E6" />
    <trip depart="1687.50" departLane="best" departSpeed="max" from="435541876#0" id="veh60" to="522768611#0" type="veh_pc_E5" />
    <trip depart="1743.75" departLane="best" from="118793922#0" id="veh62" to="360771086#23" type="veh_pc_E6" />
    <trip depart="1771.88" departLane="best" from="360771086#3" id="veh63" to="152762229#8" type="veh_pc_E6" />
    <trip depart="1800.00" departLane="best" departSpeed="max" from="315196302#0" id="veh64" to="321572180#1" type="veh_pc_E5" />
    <trip depart="1828.12" departLane="best" from="24305223#3" id="veh65" to="436277095#7" type="veh_pc_E5" />
    <trip depart="1856.25" departLane="best" departSpeed="max" from="312662578#0" id="veh66" to="24295136#21" type="veh_pc_E6" />
    <trip depart="1884.38" departLane="best" from="321544196#2" id="veh67" to="344372307#2" type="veh_pc_E6" />
    <trip depart="1912.50" departLane="best" from="24295136#4" id="veh68" to="24305273#3" type="veh_pc_E5" />
    <trip depart="1940.62" departLane="best" from="633508215#0" id="veh69" to="327607511#0" type="veh_pc_E5" />
    <trip depart="1968.75" departLane="best" departSpeed="max" from="314360433#0" id="veh70" to="320249068#3" type="veh_pc_E4" />
    <trip depart="1996.88" departLane="best" from="279653481#6" id="veh71" to="324923340" type="veh_pc_E4" />
    <trip depart="2025.00" departLane="best" from="24295246#0" id="veh72" to="24295136#21" type="veh_pc_E5" />
    <trip depart="2053.12" departLane="best" from="118793922#0" id="veh73" to="326569903#0" type="veh_pc_E6" />
    <trip depart="2081.25" departLane="best" from="24295147#1" id="veh74" to="496739504#1" type="veh_pc_E6" />
    <trip depart="2109.38" departLane="best" from="401494444#6" id="veh75" to="118793923#2" type="veh_pc_E5" />
    <trip depart="2137.50" departLane="best" from="24295246#3" id="veh76" to="329505240#0" type="veh_pc_E4" />
    <trip depart="2165.62" departLane="best" from="24295139#3" id="veh77" to="153125093#0" type="veh_pc_E5" />
    <trip depart="2193.75" departLane="best" from="436478051#1" id="veh78" to="324601502#3" type="veh_pc_E4" />
    <trip depart="2221.88" departLane="best" departSpeed="max" from="401494444#0" id="veh79" to="24295136#11" type="veh_pc_E5" />
    <trip depart="2250.00" departLane="best" departSpeed="max" from="133242880#0" id="veh80" to="293115460#18" type="veh_pc_E6" />
    <trip depart="2278.12" departLane="best" departSpeed="max" from="312662578#0" id="veh81" to="314360433#4" type="veh_pc_E5" />
    <trip depart="2306.25" departLane="best" from="344372307#2" id="veh82" to="329505240#4" type="veh_pc_E6" />
    <trip depart="2334.38" departLane="best" from="633508213#0" id="veh83" to="151181510#1" type="veh_pc_E5" />
    <trip depart="2362.50" departLane="best" departSpeed="max" from="312662578#0" id="veh84" to="24305294#0" type="veh_pc_E4" />
    <trip depart="2390.62" departLane="best" from="401494444#8" id="veh85" to="24295139#7" type="veh_pc_E5" />
    <trip depart="2418.75" departLane="best" from="24295136#16" id="veh86" to="302109830#0" type="veh_pc_E6" />
    <trip depart="2446.88" departLane="best" departSpeed="max" from="312662578#0" id="veh87" to="24295250#1" type="veh_pc_E6" />
    <trip depart="2475.00" departLane="best" from="321572180#3" id="veh88" to="118793921#1" type="veh_pc_E6" />
    <trip depart="2503.12" departLane="best" from="684284130" id="veh89" to="401494444#4" type="veh_pc_E4" />
    <trip depart="2531.25" departLane="best" from="401494444#4" id="veh90" to="172580997" type="veh_pc_E6" />
    <trip depart="2559.38" departLane="best" departSpeed="max" from="317137449#0" id="veh91" to="24295136#21" type="veh_pc_E5" />
    <trip depart="2587.50" departLane="best" from="302109830#2" id="veh92" to="118793921#5" type="veh_pc_E6" />
    <trip depart="2615.62" departLane="best" from="293115460#16" id="veh93" to="633508215#3" type="veh_pc_E6" />
    <trip depart="2671.88" departLane="best" from="314360433#5" id="veh95" to="293115460#18" type="veh_pc_E6" />
    <trip depart="2700.00" departLane="best" from="522768610#0" id="veh96" to="633508215#4" type="veh_pc_E5" />
    <trip depart="2728.12" departLane="best" from="321572180#6" id="veh97" to="344084913#5" type="veh_pc_E4" />
    <trip depart="2756.25" departLane="best" from="156115617#6" id="veh98" to="24295254#6" type="veh_pc_E6" />
    <trip depart="2784.38" departLane="best" from="522768610#5" id="veh99" to="324601502#7" type="veh_pc_E4" />
    <trip depart="2812.50" departLane="best" from="321572180#0" id="veh100" to="360771086#20" type="veh_pc_E5" />
    <trip depart="2840.62" departLane="best" from="118793921#0" id="veh101" to="324601502#7" type="veh_pc_E6" />
    <trip depart="2868.75" departLane="best" from="317137449#17" id="veh102" to="435541876#1" type="veh_pc_E5" />
    <trip depart="2896.88" departLane="best" from="156115617#7" id="veh103" to="522768611#1" type="veh_pc_E6" />
    <trip depart="2925.00" departLane="best" from="118793923#2" id="veh104" to="24295100#1" type="veh_pc_E6" />
    <trip depart="2953.12" departLane="best" departSpeed="max" from="325447816#0" id="veh105" to="329505241#1" type="veh_pc_E6" />
    <trip depart="2981.25" departLane="best" from="24295246#2" id="veh106" to="152762229#4" type="veh_pc_E4" />
    <trip depart="3009.38" departLane="best" departSpeed="max" from="435546424#0" id="veh107" to="24295139#7" type="veh_pc_E4" />
    <trip depart="3037.50" departLane="best" departSpeed="max" from="325447816#0" id="veh108" to="326569902#2" type="veh_pc_E6" />
    <trip depart="3065.62" departLane="best" departSpeed="max" from="312662578#0" id="veh109" to="324601502#7" type="veh_pc_E6" />
    <trip depart="3093.75" departLane="best" from="320249068#3" id="veh110" to="522768610#8" type="veh_pc_E5" />
    <trip depart="3121.88" departLane="best" from="24295136#8" id="veh111" to="344084913#4" type="veh_pc_E4" />
    <trip depart="3150.00" departLane="best" from="24295246#4" id="veh112" to="284927029#2" type="veh_pc_E4" />
    <trip depart="3178.12" departLane="best" from="327607511#1" id="veh113" to="24295254#6" type="veh_pc_E4" />
    <trip depart="3206.25" departLane="best" from="24305365#5" id="veh114" to="360771086#22" type="veh_pc_E4" />
    <trip depart="3234.38" departLane="best" from="118793922#3" id="veh115" to="314360433#1" type="veh_pc_E5" />
    <trip depart="3262.50" departLane="best" from="646591409" id="veh116" to="633508215#4" type="veh_pc_E6" />
    <trip depart="3290.62" departLane="best" from="118793922#3" id="veh117" to="24295136#21" type="veh_pc_E4" />
    <trip depart="3318.75" departLane="best" from="24305223#3" id="veh118" to="522768610#8" type="veh_pc_E6" />
    <trip depart="3346.88" departLane="best" departSpeed="max" from="435541876#0" id="veh119" to="436287845#0" type="veh_pc_E6" />
    <trip depart="3375.00" departLane="best" from="293115460#0" id="veh120" to="156115617#9" type="veh_pc_E4" />
    <trip depart="3403.12" departLane="best" from="401494444#14" id="veh121" to="344084913#0" type="veh_pc_E5" />
    <trip depart="3431.25" departLane="best" departSpeed="max" from="326569955#0" id="veh122" to="-24295097#0" type="veh_pc_E6" />
    <trip depart="3459.38" departLane="best" from="327607339#2" id="veh123" to="522768610#8" type="veh_pc_E6" />
    <trip depart="3487.50" departLane="best" from="152762229#8" id="veh124" to="152762229#11" type="veh_pc_E4" />
    <trip depart="3515.62" departLane="best" from="151073587#1" id="veh125" to="321572180#3" type="veh_pc_E5" />
    <trip depart="3543.75" departLane="best" from="24305273#4" id="veh126" to="326569837#0" type="veh_pc_E5" />
    <trip depart="3571.88" departLane="best" from="344084913#7" id="veh127" to="24295136#17" type="veh_pc_E5" />
    <trip depart="3600.00" departLane="best" from="326569902#5" id="veh128" to="24295246#1" type="veh_pc_E5" />
    <trip depart="3628.12" departLane="best" from="317137449#1" id="veh129" to="496739504#1" type="veh_pc_E5" />
    <trip depart="3656.25" departLane="best" from="401494444#3" id="veh130" to="118793923#8" type="veh_pc_E5" />
    <trip depart="3684.38" departLane="best" departSpeed="max" from="312662578#0" id="veh131" to="24295250#1" type="veh_pc_E6" />
    <trip depart="3712.50" departLane="best" departSpeed="max" from="-24267146#1" id="veh132" to="360771086#7" type="veh_pc_E6" />
    <trip depart="3740.62" departLane="best" from="326569903#1" id="veh133" to="24295246#0" type="veh_pc_E5" />
    <trip depart="3768.75" departLane="best" departSpeed="max" from="360771086#0" id="veh134" to="321572180#2" type="veh_pc_E5" />
    <trip depart="3796.88" departLane="best" departSpeed="max" from="314360433#0" id="veh135" to="-344372307#0" type="veh_pc_E4" />
    <trip depart="3825.00" departLane="best" from="118793923#0" id="veh136" to="436287845#0" type="veh_pc_E4" />
    <trip depart="3853.12" departLane="best" departSpeed="max" from="436277095#0" id="veh137" to="321544196#3" type="veh_pc_E5" />
    <trip depart="3909.38" departLane="best" from="156115617#3" id="veh139" to="152762229#8" type="veh_pc_E4" />
    <trip depart="3937.50" departLane="best" from="24305365#1" id="veh140" to="436478051#2" type="veh_pc_E4" />
    <trip depart="3993.75" departLane="best" from="435546424#1" id="veh142" to="24295136#20" type="veh_pc_E4" />
    <trip depart="4021.88" departLane="best" from="24295254#5" id="veh143" to="151181510#1" type="veh_pc_E5" />
    <trip depart="4050.00" departLane="best" from="369135366#1" id="veh144" to="436287845#0" type="veh_pc_E5" />
    <trip depart="4078.12" departLane="best" departSpeed="max" from="312662578#0" id="veh145" to="326569902#2" type="veh_pc_E5" />
    <trip depart="4106.25" departLane="best" from="156115617#6" id="veh146" to="522768610#6" type="veh_pc_E5" />
    <trip depart="4134.38" departLane="best" from="401494444#8" id="veh147" to="633508213#1" type="veh_pc_E6" />
    <trip depart="4162.50" departLane="best" departSpeed="max" from="401494444#0" id="veh148" to="436287845#0" type="veh_pc_E5" />
    <trip depart="4190.62" departLane="best" from="111895261" id="veh149" to="360771086#13" type="veh_pc_E5" />
    <trip depart="4218.75" departLane="best" departSpeed="max" from="279653481#0" id="veh150" to="522768610#6" type="veh_pc_E4" />
    <trip depart="4246.88" departLane="best" departSpeed="max" from="401494444#0" id="veh151" to="436277095#3" type="veh_pc_E5" />
    <trip depart="4275.00" departLane="best" departSpeed="max" from="401494444#0" id="veh152" to="24295246#2" type="veh_pc_E5" />
    <trip depart="4303.12" departLane="best" departSpeed="max" from="396425746" id="veh153" to="152762229#1" type="veh_pc_E4" />
    <trip depart="4359.38" departLane="best" from="24295146#0" id="veh155" to="401494444#15" type="veh_pc_E4" />
    <trip depart="4387.50" departLane="best" from="314360433#6" id="veh156" to="24305223#3" type="veh_pc_E4" />
    <trip depart="4415.62" departLane="best" departSpeed="max" from="401494444#0" id="veh157" to="24295136#8" type="veh_pc_E6" />
    <trip depart="4443.75" departLane="best" from="-684284130" id="veh158" to="24295136#12" type="veh_pc_E6" />
    <trip depart="4471.88" departLane="best" departSpeed="max" from="279653481#0" id="veh159" to="436277095#4" type="veh_pc_E6" />
    <trip depart="4500.00" departLane="best" from="522768610#4" id="veh160" to="24295250#1" type="veh_pc_E5" />
    <trip depart="4528.12" departLane="best" from="633508213#0" id="veh161" to="321396548#3" type="veh_pc_E5" />
    <trip depart="4556.25" departLane="best" from="496739503" id="veh162" to="152762229#11" type="veh_pc_E5" />
    <trip depart="4584.38" departLane="best" from="152762229#0" id="veh163" to="293115460#3" type="veh_pc_E5" />
    <trip depart="4612.50" departLane="best" from="344372307#2" id="veh164" to="24305273#5" type="veh_pc_E5" />
    <trip depart="4640.62" departLane="best" departSpeed="max" from="325447816#0" id="veh165" to="320249039#0" type="veh_pc_E5" />
    <trip depart="4668.75" departLane="best" from="293115460#4" id="veh166" to="324601502#7" type="veh_pc_E5" />
    <trip depart="4696.88" departLane="best" departSpeed="max" from="24305223#0" id="veh167" to="344084913#13" type="veh_pc_E5" />
    <trip depart="4725.00" departLane="best" from="321544196#0" id="veh168" to="344084913#7" type="veh_pc_E4" />
    <trip depart="4753.12" departLane="best" from="360771086#1" id="veh169" to="329505240#1" type="veh_pc_E6" />
    <trip depart="4781.25" departLane="best" from="293115457#1" id="veh170" to="118793923#2" type="veh_pc_E6" />
    <trip depart="4809.38" departLane="best" from="327607339#2" id="veh171" to="24305286#5" type="veh_pc_E4" />
    <trip depart="4837.50" departLane="best" from="24305365#4" id="veh172" to="401494444#8" type="veh_pc_E4" />
    <trip depart="4865.62" departLane="best" from="344084913#8" id="veh173" to="24295254#6" type="veh_pc_E6" />
    <trip depart="4893.75" departLane="best" from="24305365#2" id="veh174" to="293115457#3" type="veh_pc_E5" />
    <trip depart="4921.88" departLane="best" departSpeed="max" from="312662578#0" id="veh175" to="24295254#6" type="veh_pc_E6" />
    <trip depart="4950.00" departLane="best" from="152762229#4" id="veh176" to="293115460#17" type="veh_pc_E5" />
    <trip depart="4978.12" departLane="best" from="496739503" id="veh177" to="329505437#0" type="veh_pc_E5" />
    <trip depart="5006.25" departLane="best" from="435546424#2" id="veh178" to="326569902#0" type="veh_pc_E4" />
    <trip depart="5034.38" departLane="best" from="24305294#0" id="veh179" to="321572180#0" type="veh_pc_E5" />
    <trip depart="5062.50" departLane="best" from="-133242880#1" id="veh180" to="24295254#4" type="veh_pc_E4" />
    <trip depart="5090.62" departLane="best" departSpeed="max" from="314360433#0" id="veh181" to="324601502#7" type="veh_pc_E5" />
    <trip depart="5118.75" departLane="best" from="327607339#0" id="veh182" to="314360433#4" type="veh_pc_E4" />
    <trip depart="5146.88" departLane="best" from="314360433#1" id="veh183" to="24295136#21" type="veh_pc_E5" />
    <trip depart="5175.00" departLane="best" departSpeed="max" from="315196302#0" id="veh184" to="496739503" type="veh_pc_E6" />
    <trip depart="5203.12" departLane="best" departSpeed="max" from="401494444#0" id="veh185" to="24267146#0" type="veh_pc_E5" />
    <trip depart="5231.25" departLane="best" from="326569902#5" id="veh186" to="24305286#8" type="veh_pc_E5" />
    <trip depart="5259.38" departLane="best" from="401494444#11" id="veh187" to="360771086#22" type="veh_pc_E4" />
    <trip depart="5287.50" departLane="best" from="327607511#1" id="veh188" to="24295136#5" type="veh_pc_E6" />
    <trip depart="5315.62" departLane="best" from="24295136#20" id="veh189" to="111896823#2" type="veh_pc_E4" />
    <trip depart="5343.75" departLane="best" from="401494444#4" id="veh190" to="118793923#3" type="veh_pc_E5" />
    <trip depart="5371.88" departLane="best" departSpeed="max" from="312662578#0" id="veh191" to="326569903#0" type="veh_pc_E5" />
    <trip depart="5400.00" departLane="best" from="24295136#18" id="veh192" to="344084911" type="veh_pc_E5" />
    <trip depart="5428.12" departLane="best" from="327607339#0" id="veh193" to="-133242880#1" type="veh_pc_E6" />
    <trip depart="5456.25" departLane="best" from="360771086#15" id="veh194" to="360771086#7" type="veh_pc_E4" />
    <trip depart="5484.38" departLane="best" departSpeed="max" from="151073587#0" id="veh195" to="293115460#18" type="veh_pc_E4" />
    <trip depart="5512.50" departLane="best" from="24295136#1" id="veh196" to="522768611#1" type="veh_pc_E4" />
    <trip depart="5540.62" departLane="best" from="320249039#2" id="veh197" to="118793921#1" type="veh_pc_E6" />
    <trip depart="5568.75" departLane="best" from="314360433#5" id="veh198" to="401494444#14" type="veh_pc_E6" />
    <trip depart="5596.88" departLane="best" from="327607511#0" id="veh199" to="633508215#4" type="veh_pc_E6" />
    <trip depart="5625.00" departLane="best" departSpeed="max" from="325447816#0" id="veh200" to="522768611#1" type="veh_pc_E6" />
    <trip depart="5653.12" departLane="best" departSpeed="max" from="435546424#0" id="veh201" to="326569902#0" type="veh_pc_E4" />
    <trip depart="5681.25" departLane="best" from="344084913#8" id="veh202" to="317137449#7" type="veh_pc_E4" />
    <trip depart="5709.38" departLane="best" from="401494444#14" id="veh203" to="321572180#0" type="veh_pc_E5" />
    <trip depart="5737.50" departLane="best" departSpeed="max" from="315196302#0" id="veh204" to="24295147#0" type="veh_pc_E5" />
    <trip depart="5765.62" departLane="best" from="326569902#4" id="veh205" to="24295250#1" type="veh_pc_E5" />
    <trip depart="5793.75" departLane="best" from="118793923#1" id="veh206" to="24295254#0" type="veh_pc_E5" />
    <trip depart="5821.88" departLane="best" from="321544196#3" id="veh207" to="156115617#2" type="veh_pc_E6" />
    <trip depart="5850.00" departLane="best" from="24295246#0" id="veh208" to="344084911" type="veh_pc_E4" />
    <trip depart="5878.12" departLane="best" from="344084913#13" id="veh209" to="118793922#3" type="veh_pc_E4" />
    <trip depart="5906.25" departLane="best" departSpeed="max" from="312662578#0" id="veh210" to="321544196#0" type="veh_pc_E6" />
    <trip depart="5934.38" departLane="best" departSpeed="max" from="312662578#0" id="veh211" to="24295136#18" type="veh_pc_E5" />
    <trip depart="5962.50" departLane="best" departSpeed="max" from="312662578#0" id="veh212" to="496739504#1" type="veh_pc_E5" />
    <trip depart="5990.62" departLane="best" from="324924047#1" id="veh213" to="344084911" type="veh_pc_E4" />
    <trip depart="6018.75" departLane="best" from="401494444#6" id="veh214" to="360771086#4" type="veh_pc_E4" />
    <trip depart="6046.88" departLane="best" departSpeed="max" from="284927032#0" id="veh215" to="360771086#23" type="veh_pc_E4" />
    <trip depart="6075.00" departLane="best" from="401494444#5" id="veh216" to="522768611#1" type="veh_pc_E4" />
    <trip depart="6103.12" departLane="best" departSpeed="max" from="312662578#0" id="veh217" to="360771086#20" type="veh_pc_E5" />
    <trip depart="6131.25" departLane="best" from="321572180#1" id="veh218" to="324924047#2" type="veh_pc_E4" />
    <trip depart="6187.50" departLane="best" departSpeed="max" from="314360433#0" id="veh220" to="111940154#0" type="veh_pc_E4" />
    <trip depart="6215.62" departLane="best" from="279653481#3" id="veh221" to="329505437#0" type="veh_pc_E6" />
    <trip depart="6243.75" departLane="best" departSpeed="max" from="312662578#0" id="veh222" to="172580997" type="veh_pc_E5" />
    <trip depart="6271.88" departLane="best" from="314360433#9" id="veh223" to="152762229#8" type="veh_pc_E6" />
    <trip depart="6300.00" departLane="best" from="326569902#2" id="veh224" to="111896823#3" type="veh_pc_E6" />
    <trip depart="6328.12" departLane="best" from="293115460#8" id="veh225" to="321572180#8" type="veh_pc_E5" />
    <trip depart="6356.25" departLane="best" from="152762229#9" id="veh226" to="314360433#2" type="veh_pc_E6" />
    <trip depart="6384.38" departLane="best" from="118793919#0" id="veh227" to="284925148#1" type="veh_pc_E4" />
    <trip depart="6412.50" departLane="best" from="360771086#21" id="veh228" to="284925148#1" type="veh_pc_E4" />
    <trip depart="6440.62" departLane="best" departSpeed="max" from="24305223#0" id="veh229" to="118793923#8" type="veh_pc_E6" />
    <trip depart="6468.75" departLane="best" from="684284130" id="veh230" to="24305365#3" type="veh_pc_E6" />
    <trip depart="6496.88" departLane="best" departSpeed="max" from="326569955#0" id="veh231" to="369135366#1" type="veh_pc_E4" />
    <trip depart="6525.00" departLane="best" departSpeed="max" from="326569955#0" id="veh232" to="360771086#23" type="veh_pc_E5" />
    <trip depart="6553.12" departLane="best" from="496739504#3" id="veh233" to="24295136#15" type="veh_pc_E6" />
    <trip depart="6581.25" departLane="best" from="-344372307#2" id="veh234" to="156115617#8" type="veh_pc_E4" />
    <trip depart="6609.38" departLane="best" from="324601502#0" id="veh235" to="24295136#21" type="veh_pc_E6" />
    <trip depart="6637.50" departLane="best" from="344084913#0" id="veh236" to="360771086#4" type="veh_pc_E5" />
    <trip depart="6665.62" departLane="best" departSpeed="max" from="24295123" id="veh237" to="326569837#1" type="veh_pc_E5" />
    <trip depart="6693.75" departLane="best" from="360771086#13" id="veh238" to="152762229#11" type="veh_pc_E5" />
    <trip depart="6721.88" departLane="best" from="401494444#11" id="veh239" to="522768611#1" type="veh_pc_E4" />
    <trip depart="6750.00" departLane="best" from="151073587#1" id="veh240" to="111896823#2" type="veh_pc_E4" />
    <trip depart="6778.12" departLane="best" from="24305365#3" id="veh241" to="329505437#0" type="veh_pc_E4" />
    <trip depart="6806.25" departLane="best" from="522768610#0" id="veh242" to="284927029#2" type="veh_pc_E5" />
    <trip depart="6834.38" departLane="best" from="344084913#5" id="veh243" to="118793923#5" type="veh_pc_E4" />
    <trip depart="6862.50" departLane="best" from="329876536#0" id="veh244" to="326569902#5" type="veh_pc_E6" />
    <trip depart="6890.62" departLane="best" departSpeed="max" from="151073587#0" id="veh245" to="360771086#8" type="veh_pc_E5" />
    <trip depart="6918.75" departLane="best" from="152762229#11" id="veh246" to="633508215#0" type="veh_pc_E4" />
    <trip depart="6946.88" departLane="best" from="369135366#1" id="veh247" to="24305365#2" type="veh_pc_E6" />
    <trip depart="6975.00" departLane="best" departSpeed="max" from="314360433#0" id="veh248" to="279653481#7" type="veh_pc_E4" />
    <trip depart="7003.12" departLane="best" from="401494444#4" id="veh249" to="401494444#15" type="veh_pc_E4" />
    <trip depart="7031.25" departLane="best" from="326569903#0" id="veh250" to="401494444#2" type="veh_pc_E6" />
    <trip depart="7059.38" departLane="best" from="344084913#13" id="veh251" to="293115460#4" type="veh_pc_E6" />
    <trip depart="7087.50" departLane="best" departSpeed="max" from="360771086#0" id="veh252" to="522768611#1" type="veh_pc_E5" />
    <trip depart="7115.62" departLane="best" from="24305273#2" id="veh253" to="401494444#15" type="veh_pc_E4" />
    <trip depart="7143.75" departLane="best" from="321544196#0" id="veh254" to="314360433#9" type="veh_pc_E4" />
    <trip depart="7171.88" departLane="best" departSpeed="max" from="314360433#0" id="veh255" to="344372307#2" type="veh_pc_E5" />
    <trip depart="7200.00" departLane="best" from="24305225" id="veh256" to="435541876#1" type="veh_pc_E5" />
    <trip depart="7228.12" departLane="best" from="401494444#14" id="veh257" to="118793923#8" type="veh_pc_E4" />
    <trip depart="7256.25" departLane="best" departSpeed="max" from="435541876#0" id="veh258" to="24295139#7" type="veh_pc_E4" />
    <trip depart="7284.38" departLane="best" from="401494444#4" id="veh259" to="24295100#0" type="veh_pc_E6" />
    <trip depart="7312.50" departLane="best" from="24295139#2" id="veh260" to="401494444#13" type="veh_pc_E5" />