<routes xmlns:xsi="http://www.w3.org/2001/XMLSchema-instance" xsi:noNamespaceSchemaLocation="http://sumo.dlr.de/xsd/routes_file.xsd">
    <vType id="truck_truck" vClass="truck" />
    <vType emissionClass="HBEFA3/LDV_G_EU1" id="truck_truck_E1" vClass="truck" />
    <vType emissionClass="HBEFA3/LDV_G_EU2" id="truck_truck_E2" vClass="truck" />
    <vType emissionClass="HBEFA3/LDV_G_EU3" id="truck_truck_E3" vClass="truck" />
    <vType emissionClass="HBEFA3/LDV_G_EU4" id="truck_truck_E4" vClass="truck" />
    <vType emissionClass="HBEFA3/LDV_G_EU5" id="truck_truck_E5" vClass="truck" />
    <vType emissionClass="HBEFA3/LDV_G_EU6" id="truck_truck_E6" vClass="truck" />
    <trip depart="0.00" departLane="best" departSpeed="max" from="435546424#0" id="truck0" to="118793923#4" type="truck_truck_E6" />
    <trip depart="40.95" departLane="best" from="24295136#14" id="truck1" to="293115460#18" type="truck_truck_E1" />
    <trip depart="122.84" departLane="best" from="360771086#20" id="truck3" to="327607339#0" type="truck_truck_E6" />
    <trip depart="163.79" departLane="best" from="496739504#5" id="truck4" to="24295254#6" type="truck_truck_E5" />
    <trip depart="204.74" departLane="best" from="118793923#0" id="truck5" to="118793923#8" type="truck_truck_E5" />
    <trip depart="245.69" departLane="best" departSpeed="max" from="401494444#0" id="truck6" to="320601926#1" type="truck_truck_E6" />
    <trip depart="286.64" departLane="best" from="360771086#21" id="truck7" to="329505240#4" type="truck_truck_E5" />
    <trip depart="327.58" departLane="best" from="315196302#1" id="truck8" to="571354729" type="truck_truck_E6" />
    <trip depart="409.48" departLane="best" departSpeed="max" from="396425746" id="truck10" to="321544196#3" type="truck_truck_E6" />
    <trip depart="450.43" departLane="best" from="401494444#2" id="truck11" to="320249039#0" type="truck_truck_E4" />
    <trip depart="491.37" departLane="best" from="327607339#1" id="truck12" to="111940154#2" type="truck_truck_E5" />
    <trip depart="532.32" departLane="best" from="118793923#3" id="truck13" to="24295139#4" type="truck_truck_E4" />
    <trip depart="573.27" departLane="best" from="324601502#1" id="truck14" to="24305273#5" type="truck_truck_E5" />
    <trip depart="614.22" departLane="best" from="24305365#4" id="truck15" to="24295097#1" type="truck_truck_E5" />
    <trip depart="655.17" departLane="best" from="156115617#0" id="truck16" to="329505240#4" type="truck_truck_E5" />
    <trip depart="696.11" departLane="best" from="633508213#5" id="truck17" to="321572180#8" type="truck_truck_E6" />
    <trip depart="737.06" departLane="best" from="317137449#12" id="truck18" to="326569902#4" type="truck_truck_E4" />
    <trip depart="778.01" departLane="best" from="24295136#11" id="truck19" to="522768610#5" type="truck_truck_E5" />
    <trip depart="818.96" departLane="best" departSpeed="max" from="435541876#0" id="truck20" to="24295246#4" type="truck_truck_E5" />
    <trip depart="859.91" departLane="best" departSpeed="max" from="325447816#0" id="truck21" to="24305294#0" type="truck_truck_E6" />
    <trip depart="900.85" departLane="best" departSpeed="max" from="436277095#0" id="truck22" to="284925148#1" type="truck_truck_E6" />
    <trip depart="941.80" departLane="best" from="646591409" id="truck23" to="293115460#3" type="truck_truck_E6" />
    <trip depart="982.75" departLane="best" from="360771086#10" id="truck24" to="24305370#1" type="truck_truck_E6" />
    <trip depart="1023.70" departLane="best" from="118793918#3" id="truck25" to="24305286#10" type="truck_truck_E4" />
    <trip depart="1064.64" departLane="best" from="646591409" id="truck26" to="302109830#2" type="truck_truck_E4" />
    <trip depart="1105.59" departLane="best" from="522768610#4" id="truck27" to="401494444#3" type="truck_truck_E1" />
    <trip depart="1146.54" departLane="best" departSpeed="max" from="-24267146#1" id="truck28" to="329505240#0" type="truck_truck_E6" />
    <trip depart="1187.49" departLane="best" from="326569902#5" id="truck29" to="314360433#4" type="truck_truck_E2" />
    <trip depart="1228.44" departLane="best" from="24295246#0" id="truck30" to="321572180#8" type="truck_truck_E5" />
    <trip depart="1269.38" departLane="best" from="129281458" id="truck31" to="279653481#1" type="truck_truck_E5" />
    <trip depart="1310.33" departLane="best" from="293115460#15" id="truck32" to="522768610#8" type="truck_truck_E3" />
    <trip depart="1351.28" departLane="best" departSpeed="max" from="435541876#0" id="truck33" to="24295136#4" type="truck_truck_E3" />
    <trip depart="1392.23" departLane="best" departSpeed="max" from="436277095#0" id="truck34" to="435541876#1" type="truck_truck_E3" />
    <trip depart="1433.18" departLane="best" from="24305223#1" id="truck35" to="321572180#8" type="truck_truck_E6" />
    <trip depart="1474.12" departLane="best" from="321544196#3" id="truck36" to="156115617#1" type="truck_truck_E5" />
    <trip depart="1515.07" departLane="best" departSpeed="max" from="360771086#0" id="truck37" to="314360433#1" type="truck_truck_E6" />
    <trip depart="1556.02" departLane="best" from="-133242880#1" id="truck38" to="24295250#1" type="truck_truck_E5" />
    <trip depart="1596.97" departLane="best" departSpeed="max" from="-24295097#1" id="truck39" to="496739504#5" type="truck_truck_E6" />
    <trip depart="1637.91" departLane="best" from="24305273#1" id="truck40" to="118793920" type="truck_truck_E5" />
    <trip depart="1678.86" departLane="best" departSpeed="max" from="435541876#0" id="truck41" to="522768610#7" type="truck_truck_E5" />
    <trip depart="1719.81" departLane="best" from="118793921#4" id="truck42" to="293115460#0" type="truck_truck_E3" />
    <trip depart="1760.76" departLane="best" from="344084913#8" id="truck43" to="152762229#1" type="truck_truck_E6" />
    <trip depart="1801.71" departLane="best" departSpeed="max" from="284927032#0" id="truck44" to="24295097#1" type="truck_truck_E2" />
    <trip depart="1842.65" departLane="best" departSpeed="max" from="317137449#0" id="truck45" to="329505240#4" type="truck_truck_E5" />
    <trip depart="1883.60" departLane="best" departSpeed="max" from="24295123" id="truck46" to="24295246#2" type="truck_truck_E5" />
    <trip depart="1924.55" departLane="best" from="633508215#3" id="truck47" to="324601502#6" type="truck_truck_E6" />
    <trip depart="1965.50" departLane="best" from="24295136#2" id="truck48" to="24295100#1" type="truck_truck_E5" />
    <trip depart="2006.45" departLane="best" from="118793919#3" id="truck49" to="321572180#4" type="truck_truck_E4" />
    <trip depart="2047.39" departLane="best" from="24295136#8" id="truck50" to="324924047#2" type="truck_truck_E5" />
    <trip depart="2088.34" departLane="best" from="436277095#9" id="truck51" to="317137449#7" type="truck_truck_E5" />
    <trip depart="2129.29" departLane="best" from="293115460#9" id="truck52" to="344372307#1" type="truck_truck_E5" />
    <trip depart="2170.24" departLane="best" departSpeed="max" from="284927032#0" id="truck53" to="284927029#2" type="truck_truck_E2" />
    <trip depart="2211.18" departLane="best" from="329505240#5" id="truck54" to="326569837#1" type="truck_truck_E2" />
    <trip depart="2252.13" departLane="best" from="571354729" id="truck55" to="118793923#8" type="truck_truck_E5" />
    <trip depart="2293.08" departLane="best" from="279653481#1" id="truck56" to="24295254#6" type="truck_truck_E5" />
    <trip depart="2334.03" departLane="best" from="401494444#2" id="truck57" to="24295136#2" type="truck_truck_E6" />
    <trip depart="2374.98" departLane="best" from="24267146#0" id="truck58" to="284925148#0" type="truck_truck_E4" />
    <trip depart="2415.92" departLane="best" from="284927029#1" id="truck59" to="24295139#4" type="truck_truck_E6" />
    <trip depart="2456.87" departLane="best" from="24295139#4" id="truck60" to="496739504#3" type="truck_truck_E3" />
    <trip depart="2497.82" departLane="best" from="317137449#1" id="truck61" to="118793918#3" type="truck_truck_E5" />
    <trip depart="2579.72" departLane="best" from="522768610#3" id="truck63" to="496739504#4" type="truck_truck_E4" />
    <trip depart="2620.66" departLane="best" departSpeed="max" from="401494444#0" id="truck64" to="156115617#7" type="truck_truck_E5" />
    <trip depart="2661.61" departLane="best" departSpeed="max" from="312662578#0" id="truck65" to="24295097#1" type="truck_truck_E5" />
    <trip depart="2702.56" departLane="best" departSpeed="max" from="279653481#0" id="truck66" to="118793920" type="truck_truck_E5" />
    <trip depart="2743.51" departLane="best" from="24305370#1" id="truck67" to="633508215#4" type="truck_truck_E5" />
    <trip depart="2784.45" departLane="best" from="24295147#1" id="truck68" to="344372307#0" type="truck_truck_E5" />
    <trip depart="2825.40" departLane="best" from="293115460#16" id="truck69" to="24305370#1" type="truck_truck_E5" />
    <trip depart="2866.35" departLane="best" from="496739504#5" id="truck70" to="633508215#4" type="truck_truck_E4" />
    <trip depart="2907.30" departLane="best" from="317137449#12" id="truck71" to="329505082" type="truck_truck_E5" />
    <trip depart="2948.25" departLane="best" from="152762229#2" id="truck72" to="24295146#0" type="truck_truck_E6" />
    <trip depart="2989.19" departLane="best" from="522768610#3" id="truck73" to="320249039#2" type="truck_truck_E1" />
    <trip depart="3030.14" departLane="best" departSpeed="max" from="317137449#0" id="truck74" to="344084911" type="truck_truck_E6" />
    <trip depart="3071.09" departLane="best" from="111940154#1" id="truck75" to="320249068#2" type="truck_truck_E5" />
    <trip depart="3112.04" departLane="best" departSpeed="max" from="314360433#0" id="truck76" to="401494444#15" type="truck_truck_E6" />
    <trip depart="3152.99" departLane="best" from="152762229#4" id="truck77" to="522768611#0" type="truck_truck_E5" />
    <trip depart="3193.93" departLane="best" from="118793921#2" id="truck78" to="172580997" type="truck_truck_E5" />
    <trip depart="3234.88" departLane="best" from="321396548#0" id="truck79" to="321544196#3" type="truck_truck_E6" />
    <trip depart="3275.83" departLane="best" departSpeed="max" from="24295123" id="truck80" to="327607512#0" type="truck_truck_E2" />
    <trip depart="3316.78" departLane="best" from="24305273#5" id="truck81" to="344084911" type="truck_truck_E5" />
    <trip depart="3357.73" departLane="best" from="118793920" id="truck82" to="24295097#1" type="truck_truck_E5" />
    <trip depart="3439.62" departLane="best" from="24305365#4" id="truck84" to="156115617#3" type="truck_truck_E5" />
    <trip depart="3480.57" departLane="best" departSpeed="max" from="396425746" id="truck85" to="327607511#0" type="truck_truck_E5" />
    <trip depart="3521.52" departLane="best" from="321544196#4" id="truck86" to="633508215#4" type="truck_truck_E4" />
    <trip depart="3562.46" departLane="best" departSpeed="max" from="325447816#0" id="truck87" to="-133242880#0" type="truck_truck_E6" />
    <trip depart="3603.41" departLane="best" from="360771086#6" id="truck88" to="24295146#2" type="truck_truck_E6" />
    <trip depart="3644.36" departLane="best" departSpeed="max" from="325447816#0" id="truck89" to="522768610#3" type="truck_truck_E5" />
    <trip depart="3685.31" departLane="best" departSpeed="max" from="151073587#0" id="truck90" to="151181510#1" type="truck_truck_E6" />
    <trip depart="3767.20" departLane="best" from="329505240#0" id="truck92" to="24295097#0" type="truck_truck_E6" />
    <trip depart="3808.15" departLane="best" departSpeed="max" from="312662578#0" id="truck93" to="436287845#0" type="truck_truck_E5" />
    <trip depart="3849.10" departLane="best" departSpeed="max" from="401494444#0" id="truck94" to="118793923#7" type="truck_truck_E5" />
    <trip depart="3890.05" departLane="best" departSpeed="max" from="284927032#0" id="truck95" to="24295139#3" type="truck_truck_E6" />
    <trip depart="3931.00" departLane="best" from="-24267146#0" id="truck96" to="344084913#3" type="truck_truck_E6" />
    <trip depart="3971.94" departLane="best" from="324601502#3" id="truck97" to="24295136#21" type="truck_truck_E6" />
    <trip depart="4012.89" departLane="best" departSpeed="max" from="284927032#0" id="truck98" to="-133242880#0" type="truck_truck_E5" />
    <trip depart="4053.84" departLane="best" from="118793921#0" id="truck99" to="436277095#3" type="truck_truck_E5" />
    <trip depart="4094.79" departLane="best" from="435546424#1" id="truck100" to="314360433#8" type="truck_truck_E5" />
    <trip depart="4135.73" departLane="best" from="24305273#1" id="truck101" to="436287845#0" type="truck_truck_E5" />
    <trip depart="4176.68" departLane="best" departSpeed="max" from="435546424#0" id="truck102" to="24295097#1" type="truck_truck_E6" />
    <trip depart="4217.63" departLane="best" from="24295139#4" id="truck103" to="118793923#8" type="truck_truck_E3" />
    <trip depart="4258.58" departLane="best" departSpeed="max" from="360771086#0" id="truck104" to="436277095#3" type="truck_truck_E6" />
    <trip depart="4340.47" departLane="best" departSpeed="max" from="-24295097#1" id="truck106" to="329505437#0" type="truck_truck_E3" />
    <trip depart="4381.42" departLane="best" from="24305286#1" id="truck107" to="496739504#7" type="truck_truck_E3" />
    <trip depart="4422.37" departLane="best" departSpeed="max" from="360771086#0" id="truck108" to="129281459#0" type="truck_truck_E3" />
    <trip depart="4463.32" departLane="best" from="360771086#14" id="truck109" to="24295100#1" type="truck_truck_E5" />
    <trip depart="4504.27" departLane="best" from="324601502#6" id="truck110" to="24305294#3" type="truck_truck_E5" />
    <trip depart="4586.16" departLane="best" from="522768610#3" id="truck112" to="156115617#9" type="truck_truck_E6" />
    <trip depart="4627.11" departLane="best" from="522768610#0" id="truck113" to="24295136#5" type="truck_truck_E5" />
    <trip depart="4668.06" departLane="best" from="118793923#7" id="truck114" to="279653481#1" type="truck_truck_E2" />
    <trip depart="4709.00" departLane="best" from="329505240#5" id="truck115" to="24295246#3" type="truck_truck_E5" />
    <trip depart="4749.95" departLane="best" from="321544196#2" id="truck116" to="293115460#4" type="truck_truck_E5" />
    <trip depart="4790.90" departLane="best" from="24305399#2" id="truck117" to="317137449#9" type="truck_truck_E4" />
    <trip depart="4872.80" departLane="best" from="-133242880#1" id="truck119" to="496739504#4" type="truck_truck_E6" />
    <trip depart="4913.74" departLane="best" departSpeed="max" from="317137449#0" id="truck120" to="329505082" type="truck_truck_E6" />
    <trip depart="4954.69" departLane="best" from="24305273#4" id="truck121" to="401494444#15" type="truck_truck_E3" />
    <trip depart="4995.64" departLane="best" from="329505240#1" id="truck122" to="24295146#2" type="truck_truck_E6" />
    <trip depart="5036.59" departLane="best" from="279653481#1" id="truck123" to="24295146#0" type="truck_truck_E5" />
    <trip depart="5077.54" departLane="best" departSpeed="max" from="133242880#0" id="truck124" to="24305370#0" type="truck_truck_E6" />
    <trip depart="5118.48" departLane="best" departSpeed="max" from="435546424#0" id="truck125" to="321544196#2" type="truck_truck_E2" />
    <trip depart="5159.43" departLane="best" departSpeed="max" from="284927032#0" id="truck126" to="320249039#2" type="truck_truck_E4" />
    <trip depart="5200.38" departLane="best" departSpeed="max" from="325447816#0" id="truck127" to="284927029#2" type="truck_truck_E6" />
    <trip depart="5241.33" departLane="best" from="293115457#2" id="truck128" to="24295097#1" type="truck_truck_E5" />
    <trip depart="5282.27" departLane="best" from="293115460#9" id="truck129" to="436287845#0" type="truck_truck_E5" />
    <trip depart="5323.22" departLane="best" from="360771086#14" id="truck130" to="156115617#9" type="truck_truck_E4" />
    <trip depart="5364.17" departLane="best" from="118793921#4" id="truck131" to="293115460#6" type="truck_truck_E4" />
    <trip depart="5405.12" departLane="best" from="360771086#7" id="truck132" to="344084911" type="truck_truck_E6" />
    <trip depart="5446.07" departLane="best" from="326569902#0" id="truck133" to="24295100#1" type="truck_truck_E5" />
    <trip depart="5487.01" departLane="best" departSpeed="max" from="24295123" id="truck134" to="-571354729" type="truck_truck_E5" />
    <trip depart="5527.96" departLane="best" from="401494444#1" id="truck135" to="118793922#0" type="truck_truck_E5" />
    <trip depart="5568.91" departLane="best" from="279653481#7" id="truck136" to="321572180#3" type="truck_truck_E6" />
    <trip depart="5609.86" departLane="best" from="24295100#0" id="truck137" to="326569903#5" type="truck_truck_E5" />
    <trip depart="5650.81" departLane="best" departSpeed="max" from="314360433#0" id="truck138" to="24295136#17" type="truck_truck_E6" />
    <trip depart="5691.75" departLane="best" departSpeed="max" from="325447816#0" id="truck139" to="-133242880#0" type="truck_truck_E4" />
    <trip depart="5732.70" departLane="best" from="156115617#2" id="truck140" to="522768610#8" type="truck_truck_E2" />
    <trip depart="5773.65" departLane="best" from="314360433#7" id="truck141" to="118793918#3" type="truck_truck_E3" />
    <trip depart="5814.60" departLane="best" from="24295139#4" id="truck142" to="401494444#15" type="truck_truck_E5" />
    <trip depart="5855.54" departLane="best" from="293115460#17" id="truck143" to="360771086#19" type="truck_truck_E4" />
    <trip depart="5896.49" departLane="best" from="321396548#0" id="truck144" to="522768610#8" type="truck_truck_E5" />
    <trip depart="5937.44" departLane="best" from="435545285" id="truck145" to="321544188" type="truck_truck_E5" />
    <trip depart="5978.39" departLane="best" from="329505240#1" id="truck146" to="293115460#18" type="truck_truck_E1" />
    <trip depart="6019.34" departLane="best" departSpeed="max" from="396425746" id="truck147" to="314360433#9" type="truck_truck_E5" />
    <trip depart="6060.28" departLane="best" departSpeed="max" from="435546424#0" id="truck148" to="329876536#2" type="truck_truck_E4" />
    <trip depart="6101.23" departLane="best" from="302109830#0" id="truck149" to="24295136#21" type="truck_truck_E3" />
    <trip depart="6142.18" departLane="best" from="24295139#3" id="truck150" to="321572180#7" type="truck_truck_E6" />
    <trip depart="6183.13" departLane="best" from="344084913#8" id="truck151" to="293115460#8" type="truck_truck_E5" />
    <trip depart="6224.08" departLane="best" from="321572180#6" id="truck152" to="24295139#2" type="truck_truck_E5" />
    <trip depart="6265.02" departLane="best" from="118793921#1" id="truck153" to="24295139#7" type="truck_truck_E5" />
    <trip depart="6305.97" departLane="best" from="24295246#2" id="truck154" to="24295250#1" type="truck_truck_E5" />
    <trip depart="6346.92" departLane="best" departSpeed="max" from="317137449#0" id="truck155" to="152762229#4" type="truck_truck_E5" />
    <trip depart="6387.87" departLane="best" from="24295136#20" id="truck156" to="326569903#4" type="truck_truck_E4" />
    <trip depart="6428.82" departLane="best" from="284925148#0" id="truck157" to="24295097#1" type="truck_truck_E6" />
    <trip depart="6469.76" departLane="best" from="24305399#0" id="truck158" to="-133242880#0" type="truck_truck_E5" />
    <trip depart="6510.71" departLane="best" from="24305294#0" id="truck159" to="344084911" type="truck_truck_E6" />
    <trip depart="6551.66" departLane="best" from="401494444#12" id="truck160" to="522768610#8" type="truck_truck_E6" />
    <trip depart="6592.61" departLane="best" departSpeed="max" from="317137449#0" id="truck161" to="320601926#1" type="truck_truck_E5" />
    <trip depart="6633.55" departLane="best" from="293115457#0" id="truck162" to="-684284130" type="truck_truck_E4" />
    <trip depart="6674.50" departLane="best" from="24305286#10" id="truck163" to="326569837#5" type="truck_truck_E5" />
    <trip depart="6715.45" departLane="best" from="293115460#7" id="truck164" to="152762229#0" type="truck_truck_E5" />
    <trip depart="6756.40" departLane="best" departSpeed="max" from="279653481#0" id="truck165" to="317137449#17" type="truck_truck_E5" />
    <trip depart="6797.35" departLane="best" departSpeed="max" from="-24295097#1" id="truck166" to="324601502#0" type="truck_truck_E5" />
    <trip depart="6838.29" departLane="best" departSpeed="max" from="151073587#0" id="truck167" to="284927029#1" type="truck_truck_E4" />
    <trip depart="6879.24" departLane="best" from="24295136#11" id="truck168" to="24295250#1" type="truck_truck_E3" />
    <trip depart="6920.19" departLane="best" from="344084913#5" id="truck169" to="24305286#1" type="truck_truck_E5" />
    <trip depart="6961.14" departLane="best" from="24295139#6" id="truck170" to="118793923#2" type="truck_truck_E4" />
    <trip depart="7002.09" departLane="best" departSpeed="max" from="-24295097#1" id="truck171" to="314360433#5" type="truck_truck_E6" />
    <trip depart="7043.03" departLane="best" from="684284130" id="truck172" to="24305223#3" type="truck_truck_E5" />
    <trip depart="7083.98" departLane="best" from="324924047#2" id="truck173" to="344084911" type="truck_truck_E5" />
    <trip depart="7124.93" departLane="best" from="496739504#1" id="truck174" to="24267146#1" type="truck_truck_E6" />
    <trip depart="7165.88" departLane="best" departSpeed="max" from="-24295097#1" id="truck175" to="156115617#1" type="truck_truck_E3" />
    <trip depart="7206.82" departLane="best" departSpeed="max" from="133242880#0" id="truck176" to="324924047#2" type="truck_truck_E5" />
    <trip depart="7247.77" departLane="best" from="317137449#17" id="truck177" to="24295100#1" type="truck_truck_E6" />
    <trip depart="7288.72" departLane="best" from="360771086#7" id="truck178" to="522768611#1" type="truck_truck_E3" />
    <trip depart="7329.67" departLane="best" from="24305273#3" id="truck179" to="326569837#4" type="truck_truck_E5" />
    <trip depart="7370.62" departLane="best" from="496739504#5" id="truck180" to="24305294#0" type="truck_truck_E6" />
    <trip depart="7411.56" departLane="best" from="326569903#5" id="truck181" to="321572180#2" type="truck_truck_E6" />
    <trip depart="7452.51" departLane="best" from="118793923#4" id="truck182" to="344084913#4" type="truck_truck_E6" />
    <trip depart="7493.46" departLane="best" from="401494444#1" id="truck183" to="320601926#1" type="truck_truck_E6" />
    <trip depart="7534.41" departLane="best" departSpeed="max" from="133242880#0" id="truck184" to="633508215#3" type="truck_truck_E4" />
    <trip depart="7575.36" departLane="best" departSpeed="max" from="360771086#0" id="truck185" to="24305223#1" type="truck_truck_E6" />
    <trip depart="7616.30" departLane="best" departSpeed="max" from="284927032#0" id="truck186" to="24305282#0" type="truck_truck_E5" />
    <trip depart="7657.25" departLane="best" from="314360433#2" id="truck187" to="24295254#6" type="truck_truck_E5" />
    <trip depart="7698.20" departLane="best" from="401494444#1" id="truck188" to="360771086#3" type="truck_truck_E5" />
    <trip depart="7739.15" departLane="best" from="118793923#5" id="truck189" to="522768611#0" type="truck_truck_E5" />
    <trip depart="7780.09" departLane="best" from="327607339#2" id="truck190" to="279653481#1" type="truck_truck_E5" />
    <trip depart="7821.04" departLane="best" from="329505437#4" id="truck191" to="522768611#1" type="truck_truck_E5" />
    <trip depart="7861.99" departLane="best" departSpeed="max" from="317137449#0" id="truck192" to="293115457#3" type="truck_truck_E2" />
    <trip depart="7902.94" departLane="best" from="284927032#3" id="truck193" to="329505240#5" type="truck_truck_E2" />
    <trip depart="7943.89" departLane="best" from="24295246#0" id="truck194" to="401494444#15" type="truck_truck_E4" />
    <trip depart="7984.83" departLane="best" departSpeed="max" from="396425746" id="truck195" to="118793923#4" type="truck_truck_E6" />
    <trip depart="8025.78" departLane="best" departSpeed="max" from="435541876#0" id="truck196" to="24295136#17" type="truck_truck_E5" />
    <trip depart="8066.73" departLane="best" from="293115460#5" id="truck197" to="321544178" type="truck_truck_E6" />
    <trip depart="8107.68" departLane="best" from="401494444#1" id="truck198" to="172580997" type="truck_truck_E5" />
    <trip depart="8148.63" departLane="best" from="24295136#11" id="truck199" to="360771086#15" type="truck_truck_E5" />
    <trip depart="8230.52" departLane="best" departSpeed="max" from="326569955#0" id="truck201" to="24295139#3" type="truck_truck_E3" />
    <trip depart="8271.47" departLane="best" departSpeed="max" from="312662578#0" id="truck202" to="344084911" type="truck_truck_E4" />
    <trip depart="8312.42" departLane="best" departSpeed="max" from="312662578#0" id="truck203" to="360771086#13" type="truck_truck_E5" />
    <trip depart="8353.36" departLane="best" from="118793923#0" id="truck204" to="24295100#1" type="truck_truck_E5" />
    <trip depart="8394.31" departLane="best" departSpeed="max" from="326569955#0" id="truck205" to="24295246#0" type="truck_truck_E2" />
    <trip depart="8435.26" departLane="best" from="320249068#0" id="truck206" to="284927029#2" type="truck_truck_E2" />
    <trip depart="8476.21" departLane="best" departSpeed="max" from="315196302#0" id="truck207" to="24305399#1" type="truck_truck_E6" />
    <trip depart="8517.16" departLane="best" from="24295139#6" id="truck208" to="151181510#1" type="truck_truck_E5" />
    <trip depart="8558.10" departLane="best" from="24295097#0" id="truck209" to="151181510#1" type="truck_truck_E5" />
    <trip depart="8599.05" departLane="best" departSpeed="max" from="312662578#0" id="truck210" to="329505240#2" type="truck_truck_E1" />
    <trip depart="8640.00" departLane="best" from="522768610#6" id="truck211" to="302109830#0" type="truck_truck_E6" />
    <trip depart="8680.95" departLane="best" from="24295254#4" id="truck212" to="118793923#8" type="truck_truck_E6" />
    <trip depart="8721.90" departLane="best" departSpeed="max" from="315196302#0" id="truck213" to="24295139#2" type="truck_truck_E5" />
    <trip depart="8762.84" departLane="best" departSpeed="max" from="326569955#0" id="truck214" to="152762229#0" type="truck_truck_E6" />
    <trip depart="8803.79" departLane="best" from="401494444#5" id="truck215" to="293115460#11" type="truck_truck_E5" />
    <trip depart="8844.74" departLane="best" from="401494444#8" id="truck216" to="317137449#8" type="truck_truck_E6" />
    <trip depart="8885.69" departLane="best" from="156115617#6" id="truck217" to="118793918#4" type="truck_truck_E5" />
    <trip depart="8926.64" departLane="best" from="369135366#0" id="truck218" to="24305294#3" type="truck_truck_E5" />
    <trip depart="8967.58" departLane="best" from="118793920" id="truck219" to="321572180#3" type="truck_truck_E4" />
    <trip depart="9008.53" departLane="best" from="633508215#3" id="truck220" to="151181510#1" type="truck_truck_E6" />
    <trip depart="9049.48" departLane="best" from="360771086#10" id="truck221" to="24295100#1" type="truck_truck_E6" />
    <trip depart="9090.43" departLane="best" from="329876536#1" id="truck222" to="522768610#7" type="truck_truck_E2" />
    <trip depart="9131.37" departLane="best" from="24295136#1" id="truck223" to="24295097#1" type="truck_truck_E4" />
    <trip depart="9172.32" departLane="best" departSpeed="max" from="325447816#0" id="truck224" to="156115617#3" type="truck_truck_E5" />
    <trip depart="9213.27" departLane="best" from="156115617#1" id="truck225" to="118793922#3" type="truck_truck_E5" />
    <trip depart="9254.22" departLane="best" from="-24267146#0" id="truck226" to="284925148#1" type="truck_truck_E4" />
    <trip depart="9295.17" departLane="best" from="321396548#0" id="truck227" to="24295139#7" type="truck_truck_E2" />
    <trip depart="9336.11" departLane="best" from="24295136#20" id="truck228" to="327607511#1" type="truck_truck_E6" />
    <trip depart="9377.06" departLane="best" from="326569903#4" id="truck229" to="496739504#3" type="truck_truck_E6" />
    <trip depart="9418.01" departLane="best" from="360771086#1" id="truck230" to="321572180#1" type="truck_truck_E5" />
    <trip depart="9458.96" departLane="best" departSpeed="max" from="325447816#0" id="truck231" to="522768610#0" type="truck_truck_E4" />
    <trip depart="9499.91" departLane="best" departSpeed="max" from="284927032#0" id="truck232" to="314360433#7" type="truck_truck_E4" />
    <trip depart="9581.80" departLane="best" departSpeed="max" from="24305223#0" id="truck234" to="151181510#1" type="truck_truck_E6" />
    <trip depart="9622.75" departLane="best" from="436478051#2" id="truck235" to="293115460#18" type="truck_truck_E1" />
    <trip depart="9663.70" departLane="best" departSpeed="max" from="314360433#0" id="truck236" to="118793923#1" type="truck_truck_E4" />
    <trip depart="9704.64" departLane="best" from="118793922#3" id="truck237" to="522768611#1" type="truck_truck_E6" />
    <trip depart="9745.59" departLane="best" departSpeed="max" from="396425746" id="truck238" to="317137449#9" type="truck_truck_E5" />
    <trip depart="9786.54" departLane="best" from="-646591409" id="truck239" to="344084911" type="truck_truck_E5" />
    <trip depart="9827.49" departLane="best" from="293115460#8" id="truck240" to="324601502#6" type="truck_truck_E5" />
    <trip depart="9868.44" departLane="best" departSpeed="max" from="436277095#0" id="truck241" to="172580997" type="truck_truck_E5" />
    <trip depart="9909.38" departLane="best" departSpeed="max" from="312662578#0" id="truck242" to="118793923#6" type="truck_truck_E6" />
    <trip depart="9950.33" departLane="best" from="24305286#9" id="truck243" to="24295254#4" type="truck_truck_E5" />
    <trip depart="9991.28" departLane="best" from="24305286#0" id="truck244" to="326569903#4" type="truck_truck_E3" />