<?xml version="1.0" encoding="UTF-8"?>

<!-- generated on Tue Jul 30 14:35:24 2019 by Eclipse SUMO netconvert Version v1_2_0+0622-cbc8645
<configuration xmlns:xsi="http://www.w3.org/2001/XMLSchema-instance" xsi:noNamespaceSchemaLocation="http://sumo.dlr.de/xsd/netconvertConfiguration.xsd">

    <input>
        <type-files value="/usr/bin/sumo/data/typemap/osmNetconvert.typ.xml"/>
        <osm-files value="osm_bbox.osm.xml"/>
    </input>

    <output>
        <output-file value="osm.net.xml"/>
        <output.street-names value="true"/>
        <output.original-names value="true"/>
    </output>

    <projection>
        <proj.utm value="true"/>
    </projection>

    <processing>
        <geometry.remove value="true"/>
        <roundabouts.guess value="true"/>
    </processing>

    <tls_building>
        <tls.discard-simple value="true"/>
        <tls.join value="true"/>
        <tls.guess-signals value="true"/>
        <tls.default-type value="actuated"/>
    </tls_building>

    <ramp_guessing>
        <ramps.guess value="true"/>
    </ramp_guessing>

    <junctions>
        <junctions.join value="true"/>
        <junctions.corner-detail value="5"/>
    </junctions>

    <report>
        <verbose value="true"/>
    </report>

</configuration>
-->

<net version="1.3" junctionCornerDetail="5" limitTurnSpeed="5.50" xmlns:xsi="http://www.w3.org/2001/XMLSchema-instance" xsi:noNamespaceSchemaLocation="http://sumo.dlr.de/xsd/net_file.xsd">

    <location netOffset="-277017.22,1337642.66" convBoundary="0.00,0.00,2268.71,3126.89" origBoundary="-77.048608,-12.092807,-77.027734,-12.064557" projParameter="+proj=utm +zone=18 +ellps=WGS84 +datum=WGS84 +units=m +no_defs"/>

    <type id="highway.bridleway" priority="1" numLanes="1" speed="2.78" allow="pedestrian" oneway="1" width="2.00"/>
    <type id="highway.bus_guideway" priority="1" numLanes="1" speed="27.78" allow="bus" oneway="1"/>
    <type id="highway.cycleway" priority="1" numLanes="1" speed="8.33" allow="bicycle" oneway="0" width="1.00"/>
    <type id="highway.footway" priority="1" numLanes="1" speed="2.78" allow="pedestrian" oneway="1" width="2.00"/>
    <type id="highway.ford" priority="1" numLanes="1" speed="2.78" allow="army" oneway="0"/>
    <type id="highway.living_street" priority="2" numLanes="1" speed="2.78" disallow="tram rail_urban rail rail_electric rail_fast ship" oneway="0"/>
    <type id="highway.motorway" priority="14" numLanes="2" speed="39.44" allow="private emergency authority army vip passenger hov taxi bus coach delivery truck trailer motorcycle evehicle custom1 custom2" oneway="1"/>
    <type id="highway.motorway_link" priority="9" numLanes="1" speed="22.22" allow="private emergency authority army vip passenger hov taxi bus coach delivery truck trailer motorcycle evehicle custom1 custom2" oneway="1"/>
    <type id="highway.path" priority="1" numLanes="1" speed="2.78" allow="pedestrian bicycle" oneway="1" width="2.00"/>
    <type id="highway.pedestrian" priority="1" numLanes="1" speed="2.78" allow="pedestrian" oneway="1" width="2.00"/>
    <type id="highway.primary" priority="12" numLanes="2" speed="27.78" disallow="tram rail_urban rail rail_electric rail_fast ship" oneway="0"/>
    <type id="highway.primary_link" priority="7" numLanes="1" speed="22.22" disallow="tram rail_urban rail rail_electric rail_fast ship" oneway="0"/>
    <type id="highway.raceway" priority="15" numLanes="2" speed="83.33" allow="vip" oneway="0"/>
    <type id="highway.residential" priority="3" numLanes="1" speed="13.89" disallow="tram rail_urban rail rail_electric rail_fast ship" oneway="0"/>
    <type id="highway.secondary" priority="11" numLanes="2" speed="27.78" disallow="tram rail_urban rail rail_electric rail_fast ship" oneway="0"/>
    <type id="highway.secondary_link" priority="6" numLanes="1" speed="22.22" disallow="tram rail_urban rail rail_electric rail_fast ship" oneway="0"/>
    <type id="highway.service" priority="1" numLanes="1" speed="5.56" allow="pedestrian delivery bicycle" oneway="0"/>
    <type id="highway.stairs" priority="1" numLanes="1" speed="1.39" allow="pedestrian" oneway="1" width="2.00"/>
    <type id="highway.step" priority="1" numLanes="1" speed="1.39" allow="pedestrian" oneway="1" width="2.00"/>
    <type id="highway.steps" priority="1" numLanes="1" speed="1.39" allow="pedestrian" oneway="1" width="2.00"/>
    <type id="highway.tertiary" priority="10" numLanes="1" speed="22.22" disallow="tram rail_urban rail rail_electric rail_fast ship" oneway="0"/>
    <type id="highway.tertiary_link" priority="5" numLanes="1" speed="22.22" disallow="tram rail_urban rail rail_electric rail_fast ship" oneway="0"/>
    <type id="highway.track" priority="1" numLanes="1" speed="5.56" disallow="tram rail_urban rail rail_electric rail_fast ship" oneway="0"/>
    <type id="highway.trunk" priority="13" numLanes="2" speed="27.78" disallow="pedestrian bicycle tram rail_urban rail rail_electric rail_fast ship" oneway="0"/>
    <type id="highway.trunk_link" priority="8" numLanes="1" speed="22.22" disallow="pedestrian bicycle tram rail_urban rail rail_electric rail_fast ship" oneway="0"/>
    <type id="highway.unclassified" priority="4" numLanes="1" speed="13.89" disallow="tram rail_urban rail rail_electric rail_fast ship" oneway="0"/>
    <type id="highway.unsurfaced" priority="1" numLanes="1" speed="8.33" disallow="tram rail_urban rail rail_electric rail_fast ship" oneway="0"/>
    <type id="railway.highspeed" priority="21" numLanes="1" speed="69.44" allow="rail_fast" oneway="1"/>
    <type id="railway.light_rail" priority="19" numLanes="1" speed="27.78" allow="rail_urban" oneway="1"/>
    <type id="railway.preserved" priority="16" numLanes="1" speed="27.78" allow="rail" oneway="1"/>
    <type id="railway.rail" priority="20" numLanes="1" speed="44.44" allow="rail" oneway="1"/>
    <type id="railway.subway" priority="18" numLanes="1" speed="27.78" allow="rail_urban" oneway="1"/>
    <type id="railway.tram" priority="17" numLanes="1" speed="13.89" allow="tram" oneway="1"/>

    <edge id=":108064601_0" function="internal">
        <lane id=":108064601_0_0" index="0" disallow="tram rail_urban rail rail_electric rail_fast ship" speed="6.51" length="8.96" shape="1642.24,341.34 1639.78,341.33 1637.91,342.10 1636.61,343.66 1635.89,346.00"/>
    </edge>
    <edge id=":108064601_1" function="internal">
        <lane id=":108064601_1_0" index="0" disallow="tram rail_urban rail rail_electric rail_fast ship" speed="13.89" length="11.01" shape="1637.44,335.05 1635.89,346.00"/>
        <lane id=":108064601_1_1" index="1" disallow="tram rail_urban rail rail_electric rail_fast ship" speed="13.89" length="11.01" shape="1634.26,334.65 1632.73,345.50"/>
    </edge>
    <edge id=":108064608_0" function="internal">
        <lane id=":108064608_0_0" index="0" disallow="tram rail_urban rail rail_electric rail_fast ship" speed="4.36" length="4.46" shape="1625.03,414.79 1624.97,416.20 1625.32,417.13 1626.08,417.57 1627.25,417.53"/>
    </edge>
    <edge id=":108064608_1" function="internal">
        <lane id=":108064608_1_0" index="0" disallow="tram rail_urban rail rail_electric rail_fast ship" speed="13.89" length="17.55" shape="1625.03,414.79 1622.39,432.12"/>
        <lane id=":108064608_1_1" index="1" disallow="tram rail_urban rail rail_electric rail_fast ship" speed="13.89" length="17.55" shape="1621.87,414.29 1619.22,431.65"/>
    </edge>
    <edge id=":108064608_3" function="internal">
        <lane id=":108064608_3_0" index="0" disallow="tram rail_urban rail rail_electric rail_fast ship" speed="8.33" length="11.41" shape="1618.30,425.52 1620.88,423.77 1622.88,422.46 1625.12,421.44 1628.44,420.55"/>
    </edge>
    <edge id=":108064608_4" function="internal">
        <lane id=":108064608_4_0" index="0" disallow="tram rail_urban rail rail_electric rail_fast ship" speed="4.89" length="7.16" shape="1618.30,425.52 1619.11,425.42 1619.54,426.41 1619.57,428.48 1619.22,431.65"/>
    </edge>
    <edge id=":108064612_0" function="internal">
        <lane id=":108064612_0_0" index="0" disallow="tram rail_urban rail rail_electric rail_fast ship" speed="4.56" length="5.49" shape="1610.46,532.30 1609.32,531.69 1608.40,531.92 1607.70,532.99 1607.22,534.91"/>
    </edge>
    <edge id=":108064612_1" function="internal">
        <lane id=":108064612_1_0" index="0" disallow="tram rail_urban rail rail_electric rail_fast ship" speed="9.72" length="10.69" shape="1612.26,529.63 1609.63,527.77 1607.62,526.65 1605.82,525.42 1603.82,523.19"/>
    </edge>
    <edge id=":108064612_2" function="internal">
        <lane id=":108064612_2_0" index="0" disallow="tram rail_urban rail rail_electric rail_fast ship" speed="13.89" length="16.99" shape="1609.78,518.09 1607.22,534.91"/>
        <lane id=":108064612_2_1" index="1" disallow="tram rail_urban rail rail_electric rail_fast ship" speed="13.89" length="16.99" shape="1606.61,517.62 1604.06,534.40"/>
    </edge>
    <edge id=":108064612_4" function="internal">
        <lane id=":108064612_4_0" index="0" disallow="tram rail_urban rail rail_electric rail_fast ship" speed="4.89" length="7.43" shape="1606.61,517.62 1606.01,520.89 1605.34,522.91 1604.61,523.67 1603.82,523.19"/>
    </edge>
    <edge id=":108064618_0" function="internal">
        <lane id=":108064618_0_0" index="0" disallow="tram rail_urban rail rail_electric rail_fast ship" speed="6.51" length="8.96" shape="1579.74,718.17 1579.75,720.62 1580.55,722.49 1582.12,723.77 1584.47,724.46"/>
    </edge>
    <edge id=":108064618_1" function="internal">
        <lane id=":108064618_1_0" index="0" disallow="tram rail_urban rail rail_electric rail_fast ship" speed="7.33" length="11.63" shape="1579.74,718.17 1579.56,722.01 1580.22,724.87 1581.70,726.74 1584.01,727.63"/>
    </edge>
    <edge id=":108064618_2" function="internal">
        <lane id=":108064618_2_0" index="0" disallow="tram rail_urban rail rail_electric rail_fast ship" speed="13.89" length="14.23" shape="1579.74,718.17 1577.66,732.29"/>
        <lane id=":108064618_2_1" index="1" disallow="tram rail_urban rail rail_electric rail_fast ship" speed="13.89" length="14.23" shape="1576.56,717.75 1574.50,731.79"/>
    </edge>
    <edge id=":108171106_0" function="internal">
        <lane id=":108171106_0_0" index="0" disallow="tram rail_urban rail rail_electric rail_fast ship" speed="6.50" length="9.03" shape="1407.36,884.29 1409.84,884.32 1411.72,883.55 1413.02,881.98 1413.74,879.61"/>
    </edge>
    <edge id=":108171106_1" function="internal">
        <lane id=":108171106_1_0" index="0" disallow="tram rail_urban rail rail_electric rail_fast ship" speed="7.32" length="11.73" shape="1407.36,884.29 1411.22,884.53 1414.10,883.91 1415.99,882.43 1416.90,880.08"/>
    </edge>
    <edge id=":108171106_2" function="internal">
        <lane id=":108171106_2_0" index="0" disallow="tram rail_urban rail rail_electric rail_fast ship" speed="11.11" length="20.96" shape="1407.36,884.29 1427.75,889.25"/>
        <lane id=":108171106_2_1" index="1" disallow="tram rail_urban rail rail_electric rail_fast ship" speed="11.11" length="20.96" shape="1406.87,887.45 1427.20,892.40"/>
    </edge>
    <edge id=":108171106_4" function="internal">
        <lane id=":108171106_4_0" index="0" disallow="tram rail_urban rail rail_electric rail_fast ship" speed="11.11" length="17.62" shape="1411.09,897.01 1413.74,879.61"/>
        <lane id=":108171106_4_1" index="1" disallow="tram rail_urban rail rail_electric rail_fast ship" speed="11.11" length="17.62" shape="1414.25,897.49 1416.90,880.08"/>
        <lane id=":108171106_4_2" index="2" disallow="tram rail_urban rail rail_electric rail_fast ship" speed="11.11" length="17.62" shape="1417.42,897.98 1420.06,880.56"/>
        <lane id=":108171106_4_3" index="3" disallow="tram rail_urban rail rail_electric rail_fast ship" speed="11.11" length="17.62" shape="1420.58,898.46 1423.23,881.04"/>
    </edge>
    <edge id=":108171106_8" function="internal">
        <lane id=":108171106_8_0" index="0" disallow="tram rail_urban rail rail_electric rail_fast ship" speed="6.84" length="10.24" shape="1420.58,898.46 1421.40,895.46 1422.77,893.44 1424.71,892.43 1427.20,892.40"/>
    </edge>
    <edge id=":108171113_0" function="internal">
        <lane id=":108171113_0_0" index="0" disallow="tram rail_urban rail rail_electric rail_fast ship" speed="11.11" length="20.05" shape="1595.35,511.35 1593.46,508.05 1591.78,504.08 1589.87,499.16 1587.30,493.02"/>
    </edge>
    <edge id=":108171113_1" function="internal">
        <lane id=":108171113_1_0" index="0" disallow="tram rail_urban rail rail_electric rail_fast ship" speed="11.11" length="18.80" shape="1595.35,511.35 1593.78,508.04 1593.23,504.05 1593.49,499.13 1594.35,493.01"/>
    </edge>
    <edge id=":108171113_2" function="internal">
        <lane id=":108171113_2_0" index="0" disallow="tram rail_urban rail rail_electric rail_fast ship" speed="13.89" length="18.37" shape="1588.21,511.84 1588.67,506.51 1588.14,502.82 1586.70,499.27 1584.38,494.32"/>
    </edge>
    <edge id=":108171113_3" function="internal">
        <lane id=":108171113_3_0" index="0" disallow="tram rail_urban rail rail_electric rail_fast ship" speed="13.89" length="19.53" shape="1588.21,511.84 1591.19,492.51"/>
        <lane id=":108171113_3_1" index="1" disallow="tram rail_urban rail rail_electric rail_fast ship" speed="13.89" length="19.53" shape="1591.38,512.30 1594.35,493.01"/>
    </edge>
    <edge id=":108171114_0" function="internal">
        <lane id=":108171114_0_0" index="0" disallow="tram rail_urban rail rail_electric rail_fast ship" speed="13.89" length="21.94" shape="1590.93,453.00 1594.96,448.19 1597.56,444.23 1599.19,439.83 1600.30,433.70"/>
    </edge>
    <edge id=":108171114_1" function="internal">
        <lane id=":108171114_1_0" index="0" disallow="tram rail_urban rail rail_electric rail_fast ship" speed="11.11" length="23.85" shape="1593.35,455.09 1597.80,449.40 1601.47,443.96 1604.51,439.21 1607.07,435.60"/>
    </edge>
    <edge id=":108171114_2" function="internal">
        <lane id=":108171114_2_0" index="0" disallow="tram rail_urban rail rail_electric rail_fast ship" speed="13.89" length="23.33" shape="1596.89,456.74 1600.30,433.70"/>
        <lane id=":108171114_2_1" index="1" disallow="tram rail_urban rail rail_electric rail_fast ship" speed="13.89" length="23.33" shape="1600.05,457.24 1603.47,434.12"/>
    </edge>
    <edge id=":108171114_4" function="internal">
        <lane id=":108171114_4_0" index="0" disallow="tram rail_urban rail rail_electric rail_fast ship" speed="11.11" length="22.94" shape="1600.05,457.24 1601.36,450.24 1602.96,444.17 1604.86,439.22 1607.07,435.60"/>
    </edge>
    <edge id=":108171115_0" function="internal">
        <lane id=":108171115_0_0" index="0" disallow="tram rail_urban rail rail_electric rail_fast ship" speed="6.51" length="8.92" shape="1602.11,420.25 1602.09,417.81 1601.30,415.95 1599.74,414.67 1597.40,413.97"/>
    </edge>
    <edge id=":108171115_1" function="internal">
        <lane id=":108171115_1_0" index="0" disallow="tram rail_urban rail rail_electric rail_fast ship" speed="7.33" length="11.58" shape="1602.11,420.25 1602.28,416.42 1601.63,413.58 1600.17,411.70 1597.89,410.80"/>
    </edge>
    <edge id=":108171115_2" function="internal">
        <lane id=":108171115_2_0" index="0" disallow="tram rail_urban rail rail_electric rail_fast ship" speed="13.89" length="14.14" shape="1602.11,420.25 1604.27,406.22"/>
        <lane id=":108171115_2_1" index="1" disallow="tram rail_urban rail rail_electric rail_fast ship" speed="13.89" length="14.14" shape="1605.28,420.68 1607.42,406.76"/>
    </edge>
    <edge id=":108171116_0" function="internal">
        <lane id=":108171116_0_0" index="0" disallow="tram rail_urban rail rail_electric rail_fast ship" speed="6.47" length="9.03" shape="1615.25,342.93 1615.32,340.45 1614.58,338.56 1613.02,337.24 1610.65,336.52"/>
    </edge>
    <edge id=":108171116_1" function="internal">
        <lane id=":108171116_1_0" index="0" disallow="tram rail_urban rail rail_electric rail_fast ship" speed="13.89" length="11.25" shape="1615.25,342.93 1617.09,331.86"/>
        <lane id=":108171116_1_1" index="1" disallow="tram rail_urban rail rail_electric rail_fast ship" speed="13.89" length="11.25" shape="1618.40,343.48 1620.25,332.36"/>
    </edge>
    <edge id=":1273787910_0" function="internal">
        <lane id=":1273787910_0_0" index="0" disallow="tram rail_urban rail rail_electric rail_fast ship" speed="6.51" length="8.98" shape="1290.05,1311.65 1287.60,1311.67 1285.73,1312.47 1284.44,1314.04 1283.75,1316.40"/>
    </edge>
    <edge id=":1273787910_1" function="internal">
        <lane id=":1273787910_1_0" index="0" disallow="tram rail_urban rail rail_electric rail_fast ship" speed="13.89" length="14.26" shape="1290.05,1311.65 1275.91,1309.58"/>
        <lane id=":1273787910_1_1" index="1" disallow="tram rail_urban rail rail_electric rail_fast ship" speed="13.89" length="14.26" shape="1290.48,1308.48 1276.41,1306.42"/>
    </edge>
    <edge id=":1273787910_3" function="internal">
        <lane id=":1273787910_3_0" index="0" disallow="tram rail_urban rail rail_electric rail_fast ship" speed="6.51" length="8.97" shape="1280.58,1315.93 1280.59,1313.48 1279.82,1311.60 1278.26,1310.30 1275.91,1309.58"/>
    </edge>
    <edge id=":1273787910_4" function="internal">
        <lane id=":1273787910_4_0" index="0" disallow="tram rail_urban rail rail_electric rail_fast ship" speed="3.65" length="4.67" shape="1280.58,1315.93 1281.55,1314.86 1282.40,1314.58 1283.13,1315.10 1283.75,1316.40"/>
    </edge>
    <edge id=":1273804793_0" function="internal">
        <lane id=":1273804793_0_0" index="0" disallow="tram rail_urban rail rail_electric rail_fast ship" speed="11.11" length="9.35" shape="763.68,922.73 754.46,921.38"/>
        <lane id=":1273804793_0_1" index="1" disallow="tram rail_urban rail rail_electric rail_fast ship" speed="11.11" length="9.35" shape="764.17,919.57 754.90,918.21"/>
    </edge>
    <edge id=":1273804793_2" function="internal">
        <lane id=":1273804793_2_0" index="0" disallow="tram rail_urban rail rail_electric rail_fast ship" speed="5.77" length="6.79" shape="764.17,919.57 761.47,919.05 759.58,918.47 758.48,917.82 758.18,917.10"/>
    </edge>
    <edge id=":1273804793_3" function="internal">
        <lane id=":1273804793_3_0" index="0" disallow="tram rail_urban rail rail_electric rail_fast ship" speed="5.75" length="6.80" shape="761.35,917.54 760.87,918.16 759.63,918.47 757.64,918.49 754.90,918.21"/>
    </edge>
    <edge id=":1273804793_4" function="internal">
        <lane id=":1273804793_4_0" index="0" disallow="tram rail_urban rail rail_electric rail_fast ship" speed="3.65" length="4.67" shape="761.35,917.54 760.39,918.62 759.55,918.90 758.81,918.40 758.18,917.10"/>
    </edge>
    <edge id=":1273833185_0" function="internal">
        <lane id=":1273833185_0_0" index="0" disallow="tram rail_urban rail rail_electric rail_fast ship" speed="11.11" length="11.10" shape="1703.11,1244.20 1704.71,1233.26"/>
        <lane id=":1273833185_0_1" index="1" disallow="tram rail_urban rail rail_electric rail_fast ship" speed="11.11" length="11.10" shape="1706.27,1244.68 1707.88,1233.71"/>
        <lane id=":1273833185_0_2" index="2" disallow="tram rail_urban rail rail_electric rail_fast ship" speed="11.11" length="11.10" shape="1709.44,1245.16 1711.04,1234.16"/>
        <lane id=":1273833185_0_3" index="3" disallow="tram rail_urban rail rail_electric rail_fast ship" speed="11.11" length="11.10" shape="1712.60,1245.63 1714.21,1234.60"/>
    </edge>
    <edge id=":1273833185_4" function="internal">
        <lane id=":1273833185_4_0" index="0" disallow="tram rail_urban rail rail_electric rail_fast ship" speed="6.51" length="9.00" shape="1712.60,1245.63 1713.31,1243.27 1714.61,1241.70 1716.49,1240.92 1718.95,1240.93"/>
    </edge>
    <edge id=":1273895001_0" function="internal">
        <lane id=":1273895001_0_0" index="0" disallow="tram rail_urban rail rail_electric rail_fast ship" speed="11.11" length="14.29" shape="731.43,905.92 745.56,907.89"/>
        <lane id=":1273895001_0_1" index="1" disallow="tram rail_urban rail rail_electric rail_fast ship" speed="11.11" length="14.29" shape="730.97,909.09 745.14,911.06"/>
    </edge>
    <edge id=":1273895001_2" function="internal">
        <lane id=":1273895001_2_0" index="0" disallow="tram rail_urban rail rail_electric rail_fast ship" speed="6.78" length="9.82" shape="730.97,909.09 734.73,909.81 737.37,910.72 738.88,911.81 739.25,913.09"/>
    </edge>
    <edge id=":1273895001_3" function="internal">
        <lane id=":1273895001_3_0" index="0" disallow="tram rail_urban rail rail_electric rail_fast ship" speed="5.79" length="6.89" shape="730.97,909.09 733.35,909.61 734.99,910.38 735.90,911.40 736.08,912.66"/>
    </edge>
    <edge id=":1426686856_0" function="internal">
        <lane id=":1426686856_0_0" index="0" disallow="tram rail_urban rail rail_electric rail_fast ship" speed="6.46" length="9.03" shape="1579.91,529.91 1582.39,529.97 1584.28,529.22 1585.57,527.65 1586.27,525.27"/>
    </edge>
    <edge id=":1426686856_1" function="internal">
        <lane id=":1426686856_1_0" index="0" disallow="tram rail_urban rail rail_electric rail_fast ship" speed="13.89" length="11.20" shape="1584.67,536.36 1586.27,525.27"/>
        <lane id=":1426686856_1_1" index="1" disallow="tram rail_urban rail rail_electric rail_fast ship" speed="13.89" length="11.20" shape="1587.84,536.82 1589.44,525.73"/>
    </edge>
    <edge id=":1426686872_0" function="internal">
        <lane id=":1426686872_0_0" index="0" disallow="tram rail_urban rail rail_electric rail_fast ship" speed="11.11" length="11.25" shape="1468.46,516.96 1470.18,505.81"/>
        <lane id=":1426686872_0_1" index="1" disallow="tram rail_urban rail rail_electric rail_fast ship" speed="11.11" length="11.25" shape="1471.63,517.44 1473.34,506.31"/>
        <lane id=":1426686872_0_2" index="2" disallow="tram rail_urban rail rail_electric rail_fast ship" speed="11.11" length="11.25" shape="1474.79,517.91 1476.50,506.81"/>
        <lane id=":1426686872_0_3" index="3" disallow="tram rail_urban rail rail_electric rail_fast ship" speed="11.11" length="11.25" shape="1477.96,518.39 1479.66,507.31"/>
    </edge>
    <edge id=":1426686872_4" function="internal">
        <lane id=":1426686872_4_0" index="0" disallow="tram rail_urban rail rail_electric rail_fast ship" speed="6.47" length="9.03" shape="1477.96,518.39 1478.67,516.01 1479.97,514.45 1481.86,513.70 1484.34,513.76"/>
    </edge>
    <edge id=":1658531706_0" function="internal">
        <lane id=":1658531706_0_0" index="0" disallow="tram rail_urban rail rail_electric rail_fast ship" speed="6.53" length="9.07" shape="1190.61,1105.54 1188.11,1105.55 1186.21,1106.34 1184.92,1107.92 1184.22,1110.29"/>
    </edge>
    <edge id=":1658531706_1" function="internal">
        <lane id=":1658531706_1_0" index="0" disallow="tram rail_urban rail rail_electric rail_fast ship" speed="11.11" length="11.23" shape="1190.61,1105.54 1179.48,1103.98"/>
        <lane id=":1658531706_1_1" index="1" disallow="tram rail_urban rail rail_electric rail_fast ship" speed="11.11" length="11.23" shape="1191.05,1102.37 1179.93,1100.81"/>
    </edge>
    <edge id=":1658531706_3" function="internal">
        <lane id=":1658531706_3_0" index="0" disallow="tram rail_urban rail rail_electric rail_fast ship" speed="13.89" length="14.40" shape="1186.36,1096.06 1184.22,1110.29"/>
    </edge>
    <edge id=":1658531706_4" function="internal">
        <lane id=":1658531706_4_0" index="0" disallow="tram rail_urban rail rail_electric rail_fast ship" speed="6.56" length="9.09" shape="1186.36,1096.06 1185.63,1098.43 1184.32,1100.02 1182.42,1100.81 1179.93,1100.81"/>
    </edge>
    <edge id=":1658544367_0" function="internal">
        <lane id=":1658544367_0_0" index="0" allow="bicycle" speed="2.04" length="1.46" width="1.00" shape="1639.65,247.48 1639.95,247.14 1640.21,247.05 1640.44,247.20 1640.65,247.61"/>
    </edge>
    <edge id=":2064693357_0" function="internal">
        <lane id=":2064693357_0_0" index="0" allow="bicycle" speed="2.04" length="1.46" width="1.00" shape="1239.26,2849.42 1238.85,2849.62 1238.58,2849.60 1238.42,2849.37 1238.39,2848.92"/>
    </edge>
    <edge id=":2064693842_0" function="internal">
        <lane id=":2064693842_0_0" index="0" allow="bicycle" speed="8.33" length="4.95" width="1.00" shape="1426.87,1658.59 1425.90,1659.69 1425.23,1660.50 1424.81,1661.41 1424.57,1662.82"/>
    </edge>
    <edge id=":2064693842_1" function="internal">
        <lane id=":2064693842_1_0" index="0" allow="bicycle" speed="2.04" length="1.46" width="1.00" shape="1426.87,1658.59 1426.44,1658.72 1426.17,1658.65 1426.06,1658.40 1426.10,1657.95"/>
    </edge>
    <edge id=":2064693842_2" function="internal">
        <lane id=":2064693842_2_0" index="0" allow="bicycle" speed="8.33" length="5.56" width="1.00" shape="1423.57,1662.72 1423.83,1661.14 1424.29,1660.11 1425.02,1659.19 1426.10,1657.95"/>
    </edge>
    <edge id=":2064693842_3" function="internal">
        <lane id=":2064693842_3_0" index="0" allow="bicycle" speed="2.04" length="1.46" width="1.00" shape="1423.57,1662.72 1423.86,1662.37 1424.12,1662.27 1424.36,1662.42 1424.57,1662.82"/>
    </edge>
    <edge id=":2064693857_0" function="internal">
        <lane id=":2064693857_0_0" index="0" allow="bicycle" speed="8.33" length="5.34" width="1.00" shape="1455.46,1468.02 1454.85,1466.55 1454.42,1465.51 1454.22,1464.45 1454.35,1462.91"/>
    </edge>
    <edge id=":2064693857_1" function="internal">
        <lane id=":2064693857_1_0" index="0" allow="bicycle" speed="2.04" length="0.73" width="1.00" shape="1455.46,1468.02 1455.57,1467.58 1455.76,1467.38"/>
    </edge>
    <edge id=":2064693857_4" function="internal">
        <lane id=":2064693857_4_0" index="0" allow="bicycle" speed="2.04" length="0.73" width="1.00" shape="1455.76,1467.38 1456.04,1467.41 1456.40,1467.68"/>
    </edge>
    <edge id=":2064693857_2" function="internal">
        <lane id=":2064693857_2_0" index="0" allow="bicycle" speed="8.33" length="4.84" width="1.00" shape="1455.34,1463.06 1455.23,1464.46 1455.43,1465.41 1455.84,1466.35 1456.40,1467.68"/>
    </edge>
    <edge id=":2064693857_3" function="internal">
        <lane id=":2064693857_3_0" index="0" allow="bicycle" speed="2.04" length="0.73" width="1.00" shape="1455.34,1463.06 1455.03,1463.40 1454.77,1463.48"/>
    </edge>
    <edge id=":2064693857_5" function="internal">
        <lane id=":2064693857_5_0" index="0" allow="bicycle" speed="2.04" length="0.73" width="1.00" shape="1454.77,1463.48 1454.54,1463.32 1454.35,1462.91"/>
    </edge>
    <edge id=":2068555367_0" function="internal">
        <lane id=":2068555367_0_0" index="0" disallow="tram rail_urban rail rail_electric rail_fast ship" speed="11.11" length="11.42" shape="1201.93,1421.22 1190.64,1419.46"/>
        <lane id=":2068555367_0_1" index="1" disallow="tram rail_urban rail rail_electric rail_fast ship" speed="11.11" length="11.42" shape="1202.42,1418.06 1191.14,1416.30"/>
    </edge>
    <edge id=":2068555367_2" function="internal">
        <lane id=":2068555367_2_0" index="0" disallow="tram rail_urban rail rail_electric rail_fast ship" speed="8.12" length="3.62" shape="1202.42,1418.06 1200.13,1416.95 1199.61,1416.00"/>
    </edge>
    <edge id=":2068555367_3" function="internal">
        <lane id=":2068555367_3_0" index="0" disallow="tram rail_urban rail rail_electric rail_fast ship" speed="3.65" length="2.34" shape="1202.42,1418.06 1201.35,1417.09 1201.08,1416.24"/>
    </edge>
    <edge id=":2068555367_11" function="internal">
        <lane id=":2068555367_11_0" index="0" disallow="tram rail_urban rail rail_electric rail_fast ship" speed="8.12" length="10.95" shape="1199.61,1416.00 1198.75,1414.45 1198.27,1410.58 1198.69,1405.32"/>
    </edge>
    <edge id=":2068555367_12" function="internal">
        <lane id=":2068555367_12_0" index="0" disallow="tram rail_urban rail rail_electric rail_fast ship" speed="3.65" length="2.34" shape="1201.08,1416.24 1201.60,1415.51 1202.91,1414.90"/>
    </edge>
    <edge id=":2068555367_4" function="internal">
        <lane id=":2068555367_4_0" index="0" disallow="tram rail_urban rail rail_electric rail_fast ship" speed="6.53" length="9.19" shape="1192.13,1409.98 1194.69,1410.03 1196.64,1409.27 1197.97,1407.70 1198.69,1405.32"/>
    </edge>
    <edge id=":2068555367_5" function="internal">
        <lane id=":2068555367_5_0" index="0" disallow="tram rail_urban rail rail_electric rail_fast ship" speed="11.11" length="11.40" shape="1192.13,1409.98 1203.39,1411.74"/>
        <lane id=":2068555367_5_1" index="1" disallow="tram rail_urban rail rail_electric rail_fast ship" speed="11.11" length="11.40" shape="1191.63,1413.14 1202.91,1414.90"/>
    </edge>
    <edge id=":2068555367_7" function="internal">
        <lane id=":2068555367_7_0" index="0" disallow="tram rail_urban rail rail_electric rail_fast ship" speed="3.65" length="2.34" shape="1191.63,1413.14 1192.69,1414.12 1192.96,1414.97"/>
    </edge>
    <edge id=":2068555367_13" function="internal">
        <lane id=":2068555367_13_0" index="0" disallow="tram rail_urban rail rail_electric rail_fast ship" speed="3.65" length="2.34" shape="1192.96,1414.97 1192.45,1415.70 1191.14,1416.30"/>
    </edge>
    <edge id=":2068555367_8" function="internal">
        <lane id=":2068555367_8_0" index="0" disallow="tram rail_urban rail rail_electric rail_fast ship" speed="6.42" length="9.04" shape="1195.12,1425.90 1195.26,1423.41 1194.56,1421.51 1193.02,1420.19 1190.64,1419.46"/>
    </edge>
    <edge id=":2068555367_9" function="internal">
        <lane id=":2068555367_9_0" index="0" disallow="tram rail_urban rail rail_electric rail_fast ship" speed="12.50" length="20.88" shape="1195.12,1425.90 1198.69,1405.32"/>
    </edge>
    <edge id=":2068555367_10" function="internal">