<?xml version="1.0" encoding="UTF-8"?>

<!-- generated on Tue Jul 30 14:27:37 2019 by Eclipse SUMO polyconvert Version v1_2_0+0622-cbc8645
<configuration xmlns:xsi="http://www.w3.org/2001/XMLSchema-instance" xsi:noNamespaceSchemaLocation="http://sumo.dlr.de/xsd/polyconvertConfiguration.xsd">

    <input>
        <net-file value="osm.net.xml"/>
        <osm-files value="osm_bbox.osm.xml"/>
        <osm.keep-full-type value="true"/>
        <type-file value="/usr/bin/sumo/data/typemap/osmPolyconvert.typ.xml"/>
    </input>

    <output>
        <output-file value="osm.poly.xml"/>
    </output>

    <processing>
        <poi-layer-offset value="5"/>
    </processing>

    <report>
        <verbose value="true"/>
    </report>

</configuration>
-->

<additional xmlns:xsi="http://www.w3.org/2001/XMLSchema-instance" xsi:noNamespaceSchemaLocation="http://sumo.dlr.de/xsd/additional_file.xsd">
    <location netOffset="-278339.83,1334228.30" convBoundary="0.00,-1846.86,2416.37,2101.21" origBoundary="-77.036153,-12.078711,-77.014022,-12.043056" projParameter="+proj=utm +zone=18 +ellps=WGS84 +datum=WGS84 +units=m +no_defs"/>

    <poly id="126587253" type="building.yes" color="255,230,230" fill="1" layer="-1.00" shape="494.174928,1487.013549 495.640978,1477.287345 524.617518,1460.174361 543.012933,1488.016909 508.980913,1509.828233 494.174928,1487.013549"/>
    <poly id="126587254" type="amenity.college" color="237,199,199" fill="1" layer="-1.00" shape="542.079241,1552.352026 524.362817,1525.466089 558.265876,1503.421430 575.971420,1530.307265 542.079241,1552.352026"/>
    <poly id="126587254#1" type="building.yes" color="255,230,230" fill="1" layer="-1.00" shape="542.079241,1552.352026 524.362817,1525.466089 558.265876,1503.421430 575.971420,1530.307265 542.079241,1552.352026"/>
    <poly id="126587256" type="building.church" color="255,230,230" fill="1" layer="-1.00" shape="355.259020,1506.543062 326.953581,1465.404437 345.798169,1453.184643 349.725885,1459.587101 374.636934,1442.919913 378.609444,1449.156726 386.152003,1443.923610 379.774332,1434.515497 404.741666,1419.065841 407.886204,1423.869150 429.570463,1410.552800 471.200407,1476.022001 472.272404,1475.388179 476.698723,1482.115188 470.133848,1486.215887 469.294323,1484.870824 440.775193,1501.976087 432.348185,1488.403495 423.791486,1474.697161 419.546378,1468.502597 355.259020,1506.543062"/>
    <poly id="126587268" type="building.yes" color="255,230,230" fill="1" layer="-1.00" shape="458.951910,1432.877985 448.955843,1416.472239 491.215360,1391.048395 501.211518,1407.443061 458.951910,1432.877985"/>
    <poly id="126587273" type="amenity.place_of_worship" color="237,199,199" fill="1" layer="-1.00" shape="787.635233,1434.558114 863.498024,1386.290008 841.079529,1359.015450 816.814163,1373.839919 811.207058,1364.780626 805.649398,1368.180687 811.708572,1377.962537 769.522072,1408.289042 787.635233,1434.558114"/>
    <poly id="126587273#1" type="building.yes" color="255,230,230" fill="1" layer="-1.00" shape="787.635233,1434.558114 863.498024,1386.290008 841.079529,1359.015450 816.814163,1373.839919 811.207058,1364.780626 805.649398,1368.180687 811.708572,1377.962537 769.522072,1408.289042 787.635233,1434.558114"/>
    <poly id="126587274" type="amenity.place_of_worship" color="237,199,199" fill="1" layer="-1.00" shape="374.259174,1536.536796 355.259020,1506.543062 419.546378,1468.502597 423.791486,1474.697161 432.348185,1488.403495 440.775193,1501.976087 400.594386,1526.098574 397.750501,1521.872865 374.259174,1536.536796"/>
    <poly id="126587274#1" type="building.yes" color="255,230,230" fill="1" layer="-1.00" shape="374.259174,1536.536796 355.259020,1506.543062 419.546378,1468.502597 423.791486,1474.697161 432.348185,1488.403495 440.775193,1501.976087 400.594386,1526.098574 397.750501,1521.872865 374.259174,1536.536796"/>
    <poly id="149173830" type="building.public" color="255,230,230" fill="1" layer="-1.00" shape="1141.541536,1530.571254 1157.095682,1564.223490 1173.221578,1598.621272 1175.146294,1599.022747 1227.506059,1577.345994 1223.310738,1567.334589 1220.208276,1568.617338 1211.218244,1547.173805 1213.783676,1543.397515 1210.760975,1536.824847 1207.384615,1529.475033 1201.192734,1528.798638 1191.340963,1509.019518 1192.944981,1507.128213 1189.244892,1500.849291 1142.562143,1528.044950 1141.541536,1530.571254"/>
    <poly id="160071748" type="amenity.university" color="237,199,199" fill="1" layer="-1.00" shape="1369.596646,1744.498799 1307.182776,1761.974507 1300.347295,1739.285531 1308.547287,1736.447042 1302.857614,1714.928320 1315.152345,1712.120036 1310.033693,1692.918068 1301.249883,1695.176879 1295.506583,1666.166895 1349.392818,1656.063886 1369.596646,1744.498799"/>
    <poly id="160071748#1" type="building.university" color="255,230,230" fill="1" layer="-1.00" shape="1369.596646,1744.498799 1307.182776,1761.974507 1300.347295,1739.285531 1308.547287,1736.447042 1302.857614,1714.928320 1315.152345,1712.120036 1310.033693,1692.918068 1301.249883,1695.176879 1295.506583,1666.166895 1349.392818,1656.063886 1369.596646,1744.498799"/>
    <poly id="160072706" type="leisure.park" color="207,245,201" fill="1" layer="-2.00" shape="1462.656410,1310.560356 1487.459464,1296.602442 1489.813198,1293.466333 1490.518282,1290.893438 1490.361374,1287.063867 1489.341006,1282.176777 1466.120491,1180.475135 1465.206501,1178.886132 1464.135318,1177.937726 1462.929457,1177.530502 1461.535690,1177.498094 1460.422128,1177.866085 1456.051530,1181.286067 1455.625584,1187.357491 1430.397025,1199.951260 1423.618947,1199.027152 1421.184774,1204.209647 1462.656410,1310.560356"/>
    <poly id="160264223" type="leisure.park" color="207,245,201" fill="1" layer="-2.00" shape="1484.294264,1649.147204 1472.235703,1625.833351 1499.393456,1618.985266 1505.734617,1643.739647 1484.294264,1649.147204"/>
    <poly id="170059997" type="building.yes" color="255,230,230" fill="0" layer="-1.00" shape="1067.983021,1550.000055 1046.984538,1511.793101 1061.855550,1503.737112 1069.493062,1516.595499 1075.774020,1527.330486 1073.060660,1529.014427 1081.473049,1543.128854"/>
    <poly id="170059997#1" type="tourism.museum" color="207,245,201" fill="0" layer="-2.00" shape="1067.983021,1550.000055 1046.984538,1511.793101 1061.855550,1503.737112 1069.493062,1516.595499 1075.774020,1527.330486 1073.060660,1529.014427 1081.473049,1543.128854"/>
    <poly id="172097116" type="leisure.park" color="207,245,201" fill="1" layer="-2.00" shape="587.278945,1840.438654 604.420147,1843.541929 673.076148,1799.458594 677.118614,1781.530282 634.508986,1715.866180 615.232207,1711.430393 547.660566,1751.748496 542.615778,1772.656890 587.278945,1840.438654"/>
    <poly id="172241474" type="building.office" color="255,230,230" fill="0" layer="-1.00" shape="662.045998,1887.475156 671.721628,1880.985283"/>
    <poly id="172242749" type="amenity.townhall" color="237,199,199" fill="1" layer="-1.00" shape="535.993773,1888.943556 554.900065,1877.233041 583.673838,1858.126774 551.783382,1814.206809 507.617577,1842.559960 535.993773,1888.943556"/>
    <poly id="172242749#1" type="building.yes" color="255,230,230" fill="1" layer="-1.00" shape="535.993773,1888.943556 554.900065,1877.233041 583.673838,1858.126774 551.783382,1814.206809 507.617577,1842.559960 535.993773,1888.943556"/>
    <poly id="172242753" type="leisure.park" color="207,245,201" fill="1" layer="-2.00" shape="611.133871,1894.401306 593.042932,1868.043802 563.631457,1887.964157 564.953781,1891.769180 581.722388,1914.321681 611.133871,1894.401306"/>
    <poly id="172242992" type="leisure.park" color="207,245,201" fill="1" layer="-2.00" shape="483.395295,1016.168906 484.682527,1017.351315 487.107162,1017.889324 488.950453,1017.515710 498.663470,1010.362316 530.853929,987.154347 546.804233,978.940654 569.949822,971.189636 585.405041,966.590461 588.163016,964.763055 589.979127,962.176266 590.448641,959.070522 589.042860,954.778020 570.712801,901.984711 569.201717,900.147822 567.056717,898.616053 563.603840,898.690066 551.182771,906.819251 514.159349,931.175364 470.747801,957.829862 454.825546,968.134981 454.153711,969.147969 453.971272,970.253102 454.198065,971.980899 483.395295,1016.168906"/>
    <poly id="172243636" type="leisure.park" color="207,245,201" fill="1" layer="-2.00" shape="408.185857,898.390642 437.722973,943.720919 446.814282,944.042774 620.341878,831.315949 629.025355,817.582392 624.700670,788.317069 616.099636,786.505137 533.153559,842.830507 524.629060,830.684554 523.204835,831.824747 426.360346,898.658108 423.528511,900.164072 418.301615,892.734017 408.185857,898.390642"/>
    <poly id="182728022" type="leisure.garden" color="207,245,201" fill="1" layer="-2.00" shape="450.872758,854.890171 460.065206,868.014805 471.818886,860.301175 462.629961,846.700783 450.872758,854.890171"/>
    <poly id="182728023" type="leisure.garden" color="207,245,201" fill="1" layer="-2.00" shape="413.505507,860.975548 427.609517,881.461524 444.673160,869.969880 430.254484,849.326672 413.505507,860.975548"/>
    <poly id="182728024" type="leisure.garden" color="207,245,201" fill="1" layer="-2.00" shape="411.963853,810.364559 426.851160,832.427555 444.414258,819.667159 429.828342,798.082194 411.963853,810.364559"/>
    <poly id="182728026" type="leisure.garden" color="207,245,201" fill="1" layer="-2.00" shape="436.810907,787.567010 445.423612,801.030368 464.090331,789.240784 455.691241,776.343323 436.810907,787.567010"/>
    <poly id="198984714" type="leisure.park" color="207,245,201" fill="1" layer="-2.00" shape="750.149896,1413.833077 733.941701,1424.501390 755.452047,1456.759555 756.885540,1455.840712 762.608621,1452.165260 771.169629,1449.108297 753.758260,1419.248336 750.149896,1413.833077"/>
    <poly id="198985052" type="leisure.park" color="207,245,201" fill="1" layer="-2.00" shape="450.769044,1946.679703 440.872407,1931.525052 451.629619,1924.589589 468.086037,1914.277281 469.267771,1913.533621 479.054608,1928.809162 450.769044,1946.679703"/>
    <poly id="247684315" type="amenity.college" color="237,199,199" fill="1" layer="-1.00" shape="1536.521388,729.473758 1569.441029,469.860149 1307.280130,432.440837 1379.493209,761.664648 1536.521388,729.473758"/>
    <poly id="264842847" type="building.yes" color="255,230,230" fill="1" layer="-1.00" shape="428.904470,1960.769332 395.908611,1910.235288 423.759061,1892.295187 429.788047,1901.744946 436.270502,1911.729173 442.033790,1920.291773 446.815918,1917.217960 451.629619,1924.589589 440.872407,1931.525052 450.769044,1946.679703 428.904470,1960.769332"/>
    <poly id="264847360" type="building.yes" color="255,230,230" fill="0" layer="-1.00" shape="522.513329,1913.606884 495.919348,1929.542570 494.339249,1934.078522 531.765809,1986.371330"/>
    <poly id="264847362" type="building.yes" color="255,230,230" fill="0" layer="-1.00" shape="557.815944,1970.343064 552.714229,1962.150529 522.513329,1913.606884"/>
    <poly id="264964242" type="building.yes" color="255,230,230" fill="1" layer="-1.00" shape="783.936023,1946.643862 787.405140,1945.861775 805.072149,1973.610157 801.905916,1974.671105 806.461648,1986.013023 836.426840,1972.204312 804.717029,1918.515805 776.256645,1935.024354 783.936023,1946.643862"/>
    <poly id="264964391" type="building.yes" color="255,230,230" fill="1" layer="-1.00" shape="828.521491,1914.531387 813.552538,1924.013941 819.420576,1933.152595 825.256356,1942.235684 832.136405,1952.964082 839.834890,1964.948851 854.803931,1955.455218 853.522610,1953.465147 846.965504,1943.248123 840.257655,1932.797622 833.689751,1922.569449 828.521491,1914.531387"/>
    <poly id="265071438" type="building.house" color="255,230,230" fill="1" layer="-1.00" shape="871.969961,1824.043566 862.876006,1829.940293 856.333171,1835.479668 867.629593,1852.824266 884.294346,1842.292003 871.969961,1824.043566"/>
    <poly id="265072733" type="building.yes" color="255,230,230" fill="1" layer="-1.00" shape="1406.816541,1963.833761 1408.532740,1939.337925 1229.473937,1915.799320 1234.686263,1941.497024 1406.816541,1963.833761"/>
    <poly id="265072856" type="building.yes" color="255,230,230" fill="1" layer="-1.00" shape="1426.474349,1965.361761 1425.042969,1937.921625 1599.669297,1925.963786 1604.307028,1930.645147 1607.786339,1934.388534 1622.233642,1936.541918 1636.782816,1936.693322 1678.437752,1935.605883 1725.814163,1919.213682 1729.680221,1935.518402 1426.474349,1965.361761"/>
    <poly id="265073349" type="building.commercial" color="255,230,230" fill="1" layer="-1.00" shape="742.883718,1620.248961 771.252955,1601.305553 797.496475,1640.071575 769.138035,1659.026155 742.883718,1620.248961"/>
    <poly id="265075119" type="amenity.parking" color="184,184,179" fill="1" layer="-1.00" shape="897.730897,1973.863390 961.563779,1973.759587 952.834421,1949.463177 945.186913,1955.636172 917.556326,1960.079269 917.750380,1952.977095 938.952626,1950.367528 941.214502,1940.514427 914.034402,1941.475432 892.084450,1947.996399 897.730897,1973.863390"/>
    <poly id="291979446" type="building.yes" color="255,230,230" fill="1" layer="-1.00" shape="380.775926,1017.167845 395.890544,1040.903316 411.910200,1065.962199 442.831862,1046.451626 427.350388,1022.248743 411.740720,997.712952 380.775926,1017.167845"/>
    <poly id="291979446#1" type="shop.mall" color="237,199,255" fill="1" layer="-1.00" shape="380.775926,1017.167845 395.890544,1040.903316 411.910200,1065.962199 442.831862,1046.451626 427.350388,1022.248743 411.740720,997.712952 380.775926,1017.167845"/>
    <poly id="291979616" type="building.yes" color="255,230,230" fill="1" layer="-1.00" shape="728.674872,690.952773 798.546141,701.583101 809.349920,617.636741 741.686229,607.465338 735.046107,651.188665 730.979134,678.322726 728.674872,690.952773"/>
    <poly id="291979616#1" type="shop.mall" color="237,199,255" fill="1" layer="-1.00" shape="728.674872,690.952773 798.546141,701.583101 809.349920,617.636741 741.686229,607.465338 735.046107,651.188665 730.979134,678.322726 728.674872,690.952773"/>
    <poly id="291980605" type="amenity.prison" color="237,199,199" fill="1" layer="-1.00" shape="851.671301,677.876949 856.452890,680.733851 1020.861908,573.890616 1018.596662,565.055213 855.422966,569.690719 851.671301,677.876949"/>
    <poly id="291981196" type="building.yes" color="255,230,230" fill="1" layer="-1.00" shape="1035.513191,701.587280 1044.350647,700.878062 1069.960129,698.610942 1066.621801,662.559247 1064.450475,648.380242 1062.425467,642.401343 1035.444669,638.661184 1031.349895,647.493832 1035.513191,701.587280"/>
    <poly id="295038067" type="building.office" color="255,230,230" fill="0" layer="-1.00" shape="688.518448,1917.402146 669.279515,1929.918012 682.332937,1949.721012"/>
    <poly id="295038068" type="building.office" color="255,230,230" fill="0" layer="-1.00" shape="711.919351,1900.247694 734.303756,1886.526871 751.362696,1914.016312"/>
    <poly id="295038228" type="amenity.parking" color="184,184,179" fill="1" layer="-1.00" shape="698.851287,2006.129936 743.150073,1992.194941 745.030220,1997.154817 798.681142,1976.284861 773.233860,1934.360247 776.531059,1917.057116 775.403273,1914.924333 763.403674,1921.983491 751.830675,1928.791309 759.275852,1939.678815 762.102900,1946.194766 763.934505,1953.300857 763.273692,1961.660976 762.126492,1969.519581 757.124730,1975.789550 746.293803,1980.921002 699.910726,1998.359200 695.478897,1998.248972 697.802108,2003.676851 698.851287,2006.129936"/>
    <poly id="298367741" type="building.yes" color="255,230,230" fill="1" layer="-1.00" shape="426.455952,1670.774875 434.267281,1682.196319 438.317185,1679.460101 440.924538,1683.274651 457.955907,1671.782688 449.487392,1659.393743 445.063556,1658.210239 426.455952,1670.774875"/>
    <poly id="298367742" type="building.yes" color="255,230,230" fill="1" layer="-1.00" shape="508.071245,1820.997951 541.174787,1799.600163 516.589008,1762.007967 483.442000,1783.394337 491.266324,1794.539232 508.071245,1820.997951"/>
    <poly id="298367746" type="building.yes" color="255,230,230" fill="1" layer="-1.00" shape="539.845756,1671.636564 570.072570,1716.639680 617.451758,1685.234231 616.731111,1682.540145 598.176644,1695.293372 585.044886,1703.760373 576.387733,1709.494276 567.285231,1695.938876 547.550700,1666.537383 539.845756,1671.636564"/>
    <poly id="298367750" type="building.yes" color="255,230,230" fill="1" layer="-1.00" shape="785.696590,1681.997451 811.459394,1665.004266 815.843400,1671.575986 812.877488,1673.534661 821.139307,1685.910884 824.291254,1683.831870 836.215544,1701.679053 810.266695,1718.792599 785.696590,1681.997451"/>
    <poly id="298367751" type="building.yes" color="255,230,230" fill="1" layer="-1.00" shape="831.640517,1784.299419 847.234881,1808.071263 852.246946,1804.822058 853.991637,1807.479444 849.887886,1810.137863 862.876006,1829.940293 871.969961,1824.043566 841.631809,1777.822900 831.640517,1784.299419"/>
    <poly id="298367763" type="building.yes" color="255,230,230" fill="1" layer="-1.00" shape="1073.159223,1943.392000 1073.605026,1936.114653 1131.227392,1936.351917 1129.799322,1946.863999 1106.296877,1945.351678 1085.679919,1945.398647 1073.159223,1943.392000"/>
    <poly id="298367764" type="building.yes" color="255,230,230" fill="1" layer="-1.00" shape="1019.904174,1951.994462 1030.120744,1951.881804 1038.832897,1947.542344 1040.749605,1947.556497 1041.171397,1943.532024 999.157688,1943.033665 998.933388,1946.860431 1016.482047,1946.414659 1019.904174,1951.994462"/>
    <poly id="298367769" type="amenity.parking" color="184,184,179" fill="1" layer="-1.00" shape="1121.035326,1881.505938 1151.705250,1876.941260 1125.667456,1827.920119 1120.633890,1831.136013 1126.687562,1846.118177 1122.239593,1848.198720 1116.747592,1835.323012 1100.498523,1842.671796 1101.222238,1849.382408 1121.035326,1881.505938"/>
    <poly id="298367770" type="building.yes" color="255,230,230" fill="1" layer="-1.00" shape="988.137906,1869.050436 1017.142436,1852.567863 999.883658,1822.620745 970.890032,1839.103378 988.137906,1869.050436"/>
    <poly id="298417952" type="amenity.parking" color="184,184,179" fill="1" layer="-1.00" shape="760.338663,1245.191985 767.210247,1240.839015 783.435266,1266.164699 776.563680,1270.517673 760.338663,1245.191985"/>
    <poly id="298417953" type="amenity.parking" color="184,184,179" fill="1" layer="-1.00" shape="788.884168,1261.270090 795.502167,1257.335702 781.257437,1233.728656 774.639359,1237.674105 788.884168,1261.270090"/>
    <poly id="298417954" type="amenity.parking" color="184,184,179" fill="1" layer="-1.00" shape="818.720105,1238.343143 826.669964,1233.976006 811.891842,1207.388594 803.941987,1211.755727 818.720105,1238.343143"/>
    <poly id="298417955" type="amenity.parking" color="184,184,179" fill="1" layer="-1.00" shape="945.672101,1154.525259 949.284971,1151.962798 924.358854,1101.511084 919.292687,1103.255067 945.672101,1154.525259"/>
    <poly id="298417957" type="building.yes" color="255,230,230" fill="1" layer="-1.00" shape="1018.464587,1129.592035 1018.143378,1130.319939 1018.025075,1131.591518 1018.321658,1132.722320 1018.967951,1133.689734 1019.888294,1134.415748 1020.996221,1134.811203 1022.172187,1134.842022 1023.285593,1134.496175 1024.248989,1133.817276 1024.931205,1132.870743 1025.277055,1131.755753 1025.252969,1130.593770 1024.836759,1129.439954 1024.048731,1128.493622 1022.986081,1127.866141 1022.333657,1127.728542 1023.238417,1126.141895 1023.512288,1124.451003 1023.198421,1122.711508 1022.381567,1121.244918 1021.115684,1120.118018 1019.552336,1119.453642 1017.854383,1119.319382 1016.206791,1119.738735 1014.784213,1120.657667 1013.739762,1121.988791 1013.172594,1123.577932 1013.160085,1125.270756 1013.692816,1126.868025 1014.706591,1128.214359 1016.147941,1129.176583 1017.821826,1129.620480 1018.464587,1129.592035"/>
    <poly id="298417959" type="building.yes" color="255,230,230" fill="1" layer="-1.00" shape="1005.608506,1109.646763 1004.564055,1110.977886 1003.996887,1112.567028 1003.984377,1114.259852 1004.517025,1115.868185 1005.541689,1117.214600 1006.972149,1118.176744 1008.646033,1118.620642 1010.367729,1118.489522 1011.962750,1117.815290 1013.234666,1116.651819 1014.062705,1115.130994 1014.336577,1113.440102 1014.044164,1111.745025 1013.205775,1110.245081 1011.939975,1109.107116 1010.376628,1108.442739 1008.678675,1108.308479 1007.031084,1108.727831 1005.608506,1109.646763"/>
    <poly id="298417961" type="building.yes" color="255,230,230" fill="1" layer="-1.00" shape="1038.825649,1069.771217 1053.694082,1067.933670 1050.750972,1046.180640 1035.553394,1048.347696 1035.203964,1051.421131 1038.469755,1051.611235 1037.625449,1055.333837 1034.196307,1055.142526 1034.168756,1058.871164 1037.760104,1059.218580 1038.825649,1069.771217"/>
    <poly id="298417962" type="building.yes" color="255,230,230" fill="1" layer="-1.00" shape="1074.344351,1055.926015 1102.914831,1053.868793 1102.159131,1045.597801 1091.714428,1045.675551 1089.805712,1038.690622 1072.818661,1041.320263 1074.344351,1055.926015"/>
    <poly id="298417963" type="leisure.park" color="207,245,201" fill="1" layer="-2.00" shape="954.611578,1156.239993 984.286786,1141.765247 987.466834,1147.664165 999.274006,1141.544062 960.458107,1068.074508 919.963250,1087.680762 954.611578,1156.239993"/>
    <poly id="298417965" type="building.yes" color="255,230,230" fill="1" layer="-1.00" shape="979.159725,1095.753058 982.712656,1093.931493 985.182457,1098.674422 997.666922,1092.271643 994.101869,1085.418307 988.362503,1088.363390 977.656630,1067.781166 983.811452,1064.617860 979.795402,1056.898132 963.342559,1065.340690 979.159725,1095.753058"/>
    <poly id="298417966" type="building.yes" color="255,230,230" fill="1" layer="-1.00" shape="995.081449,1207.813429 1014.250715,1197.277536 1003.101730,1177.698956 985.814497,1188.514304 995.081449,1207.813429"/>
    <poly id="298417966#1" type="leisure.garden" color="207,245,201" fill="1" layer="-2.00" shape="995.081449,1207.813429 1014.250715,1197.277536 1003.101730,1177.698956 985.814497,1188.514304 995.081449,1207.813429"/>
    <poly id="298417967" type="building.yes" color="255,230,230" fill="1" layer="-1.00" shape="994.891896,1230.517021 1014.438831,1221.931323 1002.051156,1210.808172 993.962872,1214.753864 987.064218,1202.144323 980.574736,1206.378448 994.891896,1230.517021"/>
    <poly id="298417968" type="building.yes" color="255,230,230" fill="1" layer="-1.00" shape="982.233790,1236.830006 994.891896,1230.517021 980.574736,1206.378448 971.287119,1191.350182 960.762488,1196.340081 982.233790,1236.830006"/>
    <poly id="298417969" type="amenity.parking" color="184,184,179" fill="1" layer="-1.00" shape="1086.918105,1220.242757 1104.725113,1211.301145 1101.825214,1204.331028 1084.835846,1211.685346 1086.918105,1220.242757"/>
    <poly id="298417970" type="amenity.parking" color="184,184,179" fill="1" layer="-1.00" shape="1025.779962,1290.683324 1033.400112,1297.035498 1115.749968,1247.697257 1114.957308,1238.529746 1066.075543,1267.114222 1025.779962,1290.683324"/>
    <poly id="298417971" type="amenity.marketplace" color="237,199,199" fill="1" layer="-1.00" shape="1085.429776,1386.358742 1032.840828,1300.505716 1121.137534,1246.674825 1172.901983,1333.583806 1085.429776,1386.358742"/>
    <poly id="298417971#1" type="building.yes" color="255,230,230" fill="1" layer="-1.00" shape="1085.429776,1386.358742 1032.840828,1300.505716 1121.137534,1246.674825 1172.901983,1333.583806 1085.429776,1386.358742"/>
    <poly id="298417973" type="amenity.parking" color="184,184,179" fill="1" layer="-1.00" shape="1097.266856,1393.892777 1109.173218,1386.146826 1133.565879,1370.282991 1129.934292,1365.055718 1092.672745,1387.751077 1097.266856,1393.892777"/>
    <poly id="298417974" type="amenity.place_of_worship" color="237,199,199" fill="1" layer="-1.00" shape="986.043552,1441.966557 1022.646312,1421.490466 1016.378824,1410.412550 989.804484,1425.264353 979.765262,1430.877488 986.043552,1441.966557"/>
    <poly id="298417974#1" type="building.yes" color="255,230,230" fill="1" layer="-1.00" shape="986.043552,1441.966557 1022.646312,1421.490466 1016.378824,1410.412550 989.804484,1425.264353 979.765262,1430.877488 986.043552,1441.966557"/>
    <poly id="298417975" type="amenity.parking" color="184,184,179" fill="1" layer="-1.00" shape="1101.816676,1652.333766 1123.870519,1642.029294 1171.344030,1619.862888 1166.136117,1615.719406 1154.586838,1613.443321 1128.198594,1626.681177 1126.874550,1634.903612 1125.989171,1635.339668 1102.445271,1646.850266 1101.816676,1652.333766"/>
    <poly id="298417976" type="amenity.parking" color="184,184,179" fill="1" layer="-1.00" shape="1155.357051,1602.052265 1161.128719,1597.691082 1166.004119,1593.765873 1137.099601,1533.315724 1131.576535,1537.933227 1129.532128,1547.843258 1155.357051,1602.052265"/>
    <poly id="298417977" type="amenity.parking" color="184,184,179" fill="1" layer="-1.00" shape="1293.162808,1542.467389 1286.877372,1547.090357 1250.763102,1485.148729 1257.140215,1475.480900 1273.878388,1506.607959 1293.162808,1542.467389"/>
    <poly id="298417978" type="amenity.parking" color="184,184,179" fill="1" layer="-1.00" shape="1180.228429,1611.353249 1177.468398,1604.605481 1283.684858,1556.150995 1284.722779,1563.085212 1261.718350,1573.825361 1180.228429,1611.353249"/>
    <poly id="298417979" type="amenity.parking" color="184,184,179" fill="1" layer="-1.00" shape="1165.453655,1668.338544 1175.108558,1663.154030 1164.934253,1641.325540 1155.030593,1646.275852 1165.453655,1668.338544"/>
    <poly id="298417981" type="amenity.parking" color="184,184,179" fill="1" layer="-1.00" shape="1353.286601,1544.537435 1382.724274,1529.794958 1373.734099,1512.788469 1349.055376,1527.577102 1353.286601,1544.537435"/>
    <poly id="298417982" type="amenity.parking" color="184,184,179" fill="1" layer="-1.00" shape="1450.149085,1683.450811 1462.450673,1681.184695 1452.424250,1643.700768 1444.130202,1640.098894 1438.178336,1640.840614 1450.149085,1683.450811"/>
    <poly id="298417983" type="building.yes" color="255,230,230" fill="1" layer="-1.00" shape="1459.339738,1512.246847 1479.102601,1518.688400 1483.780385,1529.743402 1506.790602,1525.586686 1500.240367,1501.129506 1462.656834,1492.188727 1459.339738,1512.246847"/>
    <poly id="298417985" type="amenity.parking" color="184,184,179" fill="1" layer="-1.00" shape="1332.443624,1883.884525 1374.883615,1869.381728 1374.941781,1861.492968 1367.723570,1862.634741 1367.036544,1858.325475 1325.790626,1871.885494 1332.443624,1883.884525"/>
    <poly id="298417986" type="amenity.parking" color="184,184,179" fill="1" layer="-1.00" shape="1113.506579,1440.872144 1142.927628,1426.915378 1135.064699,1409.186834 1129.727660,1412.212375 1122.446127,1401.292972 1115.858677,1404.043722 1121.363090,1416.698243 1106.383809,1424.675999 1113.506579,1440.872144"/>
    <poly id="298417987" type="amenity.parking" color="184,184,179" fill="1" layer="-1.00" shape="1339.935080,1303.813012 1343.734477,1302.535398 1343.478107,1298.904256 1346.116586,1297.031642 1351.053508,1300.996063 1354.712475,1299.562504 1341.184698,1273.194896 1328.869737,1278.769209 1339.935080,1303.813012"/>
    <poly id="298417988" type="amenity.parking" color="184,184,179" fill="1" layer="-1.00" shape="1422.890209,1198.900064 1430.386461,1199.906923 1455.582187,1187.335041 1456.035135,1180.555670 1422.890209,1198.900064"/>
    <poly id="298417989" type="amenity.parking" color="184,184,179" fill="1" layer="-1.00" shape="1371.409956,1294.861432 1391.463565,1284.010957 1370.547002,1249.445181 1357.271442,1255.322231 1366.756982,1273.073737 1363.092362,1281.179322 1371.409956,1294.861432"/>
    <poly id="298417990" type="amenity.parking" color="184,184,179" fill="1" layer="-1.00" shape="1370.832614,1169.393550 1391.044671,1162.151377 1384.082598,1135.976056 1363.876922,1142.355216 1370.832614,1169.393550"/>
    <poly id="298417991" type="amenity.parking" color="184,184,179" fill="1" layer="-1.00" shape="1545.993648,1144.882201 1565.839654,1141.487763 1562.862222,1115.474658 1542.224112,1118.475984 1545.993648,1144.882201"/>
    <poly id="298417992" type="amenity.parking" color="184,184,179" fill="1" layer="-1.00" shape="1589.584267,963.774388 1613.575437,959.447859 1619.452980,993.891560 1600.882760,997.085188 1596.514602,995.747348 1589.584267,963.774388"/>
    <poly id="298417994" type="amenity.parking" color="184,184,179" fill="1" layer="-1.00" shape="1577.497269,960.609282 1567.591749,906.761443 1522.304376,916.219869 1523.014262,918.902780 1503.731241,922.766038 1505.123148,930.433131 1545.043872,922.130155 1553.131178,965.563712 1577.497269,960.609282"/>
    <poly id="298417995" type="leisure.garden" color="207,245,201" fill="1" layer="-2.00" shape="1492.354870,997.502197 1509.703801,994.520925 1507.198508,975.382510 1487.677174,979.066970 1492.354870,997.502197"/>
    <poly id="298417996" type="leisure.garden" color="207,245,201" fill="1" layer="-2.00" shape="1457.717254,996.770965 1470.492387,993.755980 1468.922510,977.733661 1455.673528,980.025938 1457.717254,996.770965"/>
    <poly id="298418002" type="building.hospital" color="255,230,230" fill="1" layer="-1.00" shape="1457.381666,372.050668 1455.002209,387.534879 1443.786838,385.825594 1452.376317,330.155636 1523.758652,341.027884 1519.961317,365.663276 1551.301305,370.431013 1553.885948,353.697996 1570.932022,356.291167 1563.451631,404.843583 1548.211357,402.518221 1550.716264,386.260402 1457.381666,372.050668"/>
    <poly id="298418005" type="building.yes" color="255,230,230" fill="1" layer="-1.00" shape="1331.934968,496.013084 1369.554996,499.831524 1371.584121,491.979434 1366.847832,490.362208 1369.317694,477.390372 1373.682364,476.238656 1374.935451,468.768105 1335.356795,461.781740 1332.512992,470.822812 1338.061004,471.649371 1336.758491,485.813758 1331.598860,486.959600 1331.934968,496.013084"/>