<?xml version="1.0" encoding="UTF-8"?>

<!-- generated on Tue Jul 30 14:27:39 2019 by Eclipse SUMO Version v1_2_0+0622-cbc8645
-->

<configuration xmlns:xsi="http://www.w3.org/2001/XMLSchema-instance" xsi:noNamespaceSchemaLocation="http://sumo.dlr.de/xsd/sumoConfiguration.xsd">

    <input>
        <net-file value="osm.net.xml"/>
        <!-- <route-files value="osm.passenger.trips.xml"/> -->
        <additional-files value="routes.rou.xml, routes_passenger.rou.xml"/>
    </input>

    <processing>
        <ignore-route-errors value="true"/>
        <threads value="8"/>
        <ignore-accidents value="true"/>
    </processing>

    <routing>
        <device.rerouting.adaptation-steps value="180"/>
        <routing-algorithm value="CHWrapper"/>
    </routing>

    <report>
        <verbose value="false"/>
        <duration-log.statistics value="false"/>
        <no-step-log value="false"/>
        <no-warnings value='true'/>
    </report>


</configuration>
