<?xml version="1.0" encoding="UTF-8"?>

<!-- generated on Wed Oct 16 11:16:42 2019 by Eclipse SUMO duarouter Version 1.2.0
<configuration xmlns:xsi="http://www.w3.org/2001/XMLSchema-instance" xsi:noNamespaceSchemaLocation="http://sumo.dlr.de/xsd/duarouterConfiguration.xsd">

    <input>
        <net-file value="osm.net.xml"/>
        <route-files value="osm.passenger.trips.xml"/>
    </input>

    <output>
        <output-file value="routes_passenger.rou.xml"/>
        <alternatives-output value="routes_passenger.rou.alt.xml"/>
    </output>

</configuration>
-->

<routes xmlns:xsi="http://www.w3.org/2001/XMLSchema-instance" xsi:noNamespaceSchemaLocation="http://sumo.dlr.de/xsd/routes_file.xsd">
    <vType id="veh_pc_E5" vClass="passenger" emissionClass="HBEFA3/PC_G_EU5"/>
    <vehicle id="veh0" type="veh_pc_E5" depart="0.00">
        <route edges="430072721#0 430072721#3 430072721#4 430072721#5 430072721#6 430072721#7 430072721#8 618118685#1 618118686#2 412307193#0 412307193#1 442469224#1 442867200#1 442867200#2 172098498#2 410089534#0 410089534#3 410089534#4 410089534#6 410089534#7 410089534#8 410089534#9 129897418 299781215 319662804#8 355775773 279864770#0 279864770#1 279864770#2 279864770#3 279864770#4 -479823503 35557265#0 75036007#0 -75036007#0"/>
    </vehicle>
    <vType id="veh_pc_E6" vClass="passenger" emissionClass="HBEFA3/PC_G_EU6"/>
    <vehicle id="veh2" type="veh_pc_E6" depart="20.00">
        <route edges="435491726#22 75036027#0 -428073531#1 -428073531#0 442334036#1 435707014#4 435707014#5 618118083#1 618118082#2 412307193#0 412307193#1 442469223#1 430077169#4 430077169#5 430077169#6"/>
    </vehicle>
    <vType id="veh_pc_E4" vClass="passenger" emissionClass="HBEFA3/PC_G_EU4"/>
    <vehicle id="veh3" type="veh_pc_E4" depart="30.00">
        <route edges="618055292#0 618055292#1 618055291#0 413976459#3 618055289#1 618055289#2 428030875#5 75223332 651186341#0 651186341#1 651186341#2 442469224#1 442867200#1 442867200#2 442867200#7 172243635 111948492 618315978#1 618315978#2 298431255#1 298431255#2 298431255#3 129897442#1 129897442#2 129897442#3 129897442#4"/>
    </vehicle>
    <vehicle id="veh5" type="veh_pc_E4" depart="50.00">
        <route edges="28707280#1 430410163#5 430410163#6 44364644#1 44364644#2 44364644#3 129897442#5 111925884#0 111925884#1 412296575#1 412296575#2 44364379#2 44364379#3 44364379#4 435393028#1 406644984#0 406644984#1"/>
    </vehicle>
    <vehicle id="veh6" type="veh_pc_E5" depart="60.00">
        <route edges="-654035438 410089534#8 410089534#9 129897418 299781215 319662804#8 355775773 279864770#0 279864770#1 279864770#2 279864770#3 279864770#4 -479823503 35557265#0 35557265#1 35557265#2 35557265#3 35557265#4 35557265#5 279864811#0"/>
    </vehicle>
    <vehicle id="veh7" type="veh_pc_E5" depart="70.00">
        <route edges="430072721#7 430072721#8 618118685#1 618118686#2 412307193#0 412307193#1 442469224#1 442867200#1 442867200#2 172098498#2 410089534#0 410089534#3 410089534#4 410089534#6 410089534#7 410089534#8 410089534#9"/>
    </vehicle>
    <vehicle id="veh8" type="veh_pc_E6" depart="80.00">
        <route edges="28798001#0 435393029#1 435393029#2 442867200#7 172243635 412495542#0"/>
    </vehicle>
    <vehicle id="veh9" type="veh_pc_E5" depart="90.00">
        <route edges="442469223#1 -618289633 442469224#1 442867200#1 442867200#2 172098498#2 410089534#0 410089534#3 410089534#4 410089534#6 410089534#7 654035438 331470728#8 331470728#9 129897427 319662804#2 319662804#3 319662804#5 35557447#0 -35557447#0"/>
    </vehicle>
    <vehicle id="veh10" type="veh_pc_E6" depart="100.00">
        <route edges="442451694 391958206#0 413976463#0 75036032 619019400#1 619019400#2 619019400#3 619019400#4 619019400#5 619019400#6 619019400#7 619019400#8 320898734#0 428030875#3 428030875#4 428030875#5 75223332 651186341#0 651186341#1 651186341#2 442469223#1 435343301#1"/>
    </vehicle>
    <vehicle id="veh11" type="veh_pc_E5" depart="110.00">
        <route edges="331470728#0 331470728#1 120863177#0 120863177#1 120863177#2 120863177#4 410089531#1 410089531#2 442867200#7 172243635 412495542#0 412495542#1 279043423#0"/>
    </vehicle>
    <vehicle id="veh12" type="veh_pc_E6" depart="120.00">
        <route edges="75036014#0 -75036014#0 320898743#2"/>
    </vehicle>
    <vehicle id="veh13" type="veh_pc_E4" depart="130.00">
        <route edges="129897442#4 129897442#5 111925884#0 111925884#1 412296575#1 412296575#2 435491726#1 435491726#5 442469223#1 435343301#1 144953677#0"/>
    </vehicle>
    <vehicle id="veh14" type="veh_pc_E6" depart="140.00">
        <route edges="44364644#0 44364644#1 44364644#2 44364644#3 129897442#5 111925884#0 111925884#1 412296575#1 412296575#2 435491726#1 435491726#5 435491726#9 435491726#13 435491726#15 75223312#1 618055292#0 618055292#1 618055291#0 413976459#3"/>
    </vehicle>
    <vehicle id="veh15" type="veh_pc_E4" depart="150.00">
        <route edges="442451694 391958206#0 413976459#0 413976459#1 428032853#2 442334036#0 442334036#1 435707014#4 435707014#5 435491726#18"/>
    </vehicle>
    <vehicle id="veh16" type="veh_pc_E5" depart="160.00">
        <route edges="410089534#7 654035438 331470728#8 331470728#9 428030874#0 428030874#1 120863177#4 410089531#1 410089531#2 435491726#1 435491726#5 435491726#9 435491726#13 435491726#15 435491726#18 435491726#20 435491726#21 435491726#22 75036027#0 75036027#1 75036027#2 75036027#3"/>
    </vehicle>
    <vehicle id="veh17" type="veh_pc_E5" depart="170.00">
        <route edges="344149309#0 344149309#3 401506730#0 401506730#1 401506730#2 401506730#3 401506730#4 401506730#5 401506730#6 401506730#7 401506730#8 618118083#1 618118082#2 412307193#0 412307193#1 442469224#1 442867200#1 442867200#2 442867200#7 442867200#8 412296083#1 412296083#2"/>
    </vehicle>
    <vehicle id="veh18" type="veh_pc_E4" depart="180.00">
        <route edges="442867200#7 442867200#8 412296575#1 412296575#2 435491726#1 435491726#5 435491726#9 435491726#13 435491726#15 435491726#18 435491726#20 435491726#21 435491726#22 75036027#0 75036027#1 75036027#2 75036027#3 619019400#1 619019400#2 428032853#0"/>
    </vehicle>
    <vehicle id="veh19" type="veh_pc_E5" depart="190.00">
        <route edges="44364645#7 284929204#2 120863177#0 120863177#1 120863177#2 120863177#4 410089531#1 410089531#2 435491726#1 435491726#5 435491726#9 435491726#13 618118082#2 412307193#0"/>
    </vehicle>
    <vehicle id="veh20" type="veh_pc_E4" depart="200.00">
        <route edges="435491726#1 435491726#5 442469224#1 442867200#1 442867200#2 442867200#7 172243635 111948492"/>
    </vehicle>
    <vehicle id="veh21" type="veh_pc_E6" depart="210.00">
        <route edges="298367761#6 -437506344 28707264#1 435365881 435707014#1 435707014#3 435707014#4 435707014#5 618118083#1 618118082#2 412307193#0 412307193#1 442469224#1 442867200#1 442867200#2 172098498#2 410089534#0 410089534#3 410089534#4 410089534#6 410089534#7 654035438 331470728#8 331470728#9 129897427 319662804#2"/>
    </vehicle>
    <vehicle id="veh22" type="veh_pc_E5" depart="220.00">
        <route edges="129897418 299781215 319662804#8 355775773 279864770#0 279864770#1 279864770#2 279864770#3 279864770#4 -479823503 331470728#0 331470728#1 120863177#0 120863177#1 120863177#2 120863177#4 410089531#1 410089531#2 435491726#1 435491726#5 435491726#9 435491726#13 435491726#15 435491726#18 75223322#0 75223322#1 151316320#7 304437031 298367768#2 298367768#3 298367768#7"/>
    </vehicle>
    <vehicle id="veh23" type="veh_pc_E4" depart="230.00">
        <route edges="129897454#1 412296575#1 412296575#2 172098498#2 410089534#0 410089534#3 410089534#4 410089534#6 410089534#7 410089534#8 410089534#9 129897418 299781215 319662804#8 355775773 279864770#0 279864770#1 279864770#2 279864770#3 279864770#4 279864770#5 315199154#0"/>
    </vehicle>
    <vehicle id="veh24" type="veh_pc_E6" depart="240.00">
        <route edges="430072204#2 430072204#3 336833695#0 336833695#1 284929204#0 284929204#1 284929204#2 331470728#6 331470728#8 331470728#9"/>
    </vehicle>
    <vehicle id="veh25" type="veh_pc_E5" depart="250.00">
        <route edges="336833691#1 44364645#7 284929204#2 129897450 299781216 355775773 279864770#0 279864770#1 279864770#2 279864770#3 279864770#4 -479823503 35557265#0 35557265#1 284929209#1 284929209#2"/>
    </vehicle>
    <vehicle id="veh26" type="veh_pc_E4" depart="260.00">
        <route edges="304442660#1 304442660#2 24252801#2 24252801#3 24252801#4 344149309#3 401506730#0 401506730#1 401506730#2 401506730#3 401506730#4 401506730#5 401506730#6 151316320#6 151316320#7 304437031 298367768#2 298367768#3 298367768#7 75037344#1 627176989 627176990#0 627176990#1"/>
    </vehicle>
    <vehicle id="veh27" type="veh_pc_E5" depart="270.00">
        <route edges="430072721#6 430072721#7 430072721#8 618118685#1 618118686#2 435491726#13 435491726#15 435491726#18 435491726#20 435491726#21 435491726#22 319788732#1 319788732#2 75037344#1 442451693 442451694 391958206#0 413976463#0 413976463#2"/>
    </vehicle>
    <vehicle id="veh28" type="veh_pc_E6" depart="280.00">
        <route edges="279043423#1 430410163#6 44364644#1 44364644#2 44364644#3 129897442#5 111925884#0 111925884#1 412296575#1 412296575#2 435491726#1 435491726#5 435491726#9 435491726#13 435491726#15 435491726#18"/>
    </vehicle>
    <vehicle id="veh29" type="veh_pc_E4" depart="290.00">
        <route edges="279043423#0 279043423#1 430410163#6 44364644#1 44364644#2 44364644#3 129897442#5 111925884#0 111925884#1 412296575#1 412296575#2 435491726#1 435491726#5 435491726#9 435491726#13 435491726#15 435491726#18 75223322#0 75223322#1 75223322#2 75223322#3 304437030#0 304437030#1 304437030#2 304437030#3 304437030#4 304437030#5 304442660#0 304442660#1 304442660#2 24252801#2 24252801#3 24252801#4 344149309#3"/>
    </vehicle>
    <vehicle id="veh30" type="veh_pc_E6" depart="300.00">
        <route edges="75223322#3 304437030#0 304437030#1 304437030#2 304437030#3 304437030#4 304437030#5 304442660#0 304442660#1 304442660#2 24252801#2 24252801#3 24252801#4 344149309#3 401506730#0 401506730#1 401506730#2 401506730#3 401506730#4 401506730#5 401506730#6 401506730#7 401506730#8 618118083#1 618118082#2 412307193#0 412307193#1 442469224#1 430072204#0 430072204#1"/>
    </vehicle>
    <vehicle id="veh31" type="veh_pc_E6" depart="310.00">
        <route edges="412296575#2 44364379#2 44364379#3 44364379#4 430410163#1 430410163#2"/>
    </vehicle>
    <vehicle id="veh32" type="veh_pc_E4" depart="320.00">
        <route edges="44364379#3 44364379#4 435393029#1 435393029#2 435491726#1 430072204#0 410089530#2 442309012#0"/>
    </vehicle>
    <vehicle id="veh33" type="veh_pc_E6" depart="330.00">
        <route edges="298367768#2 298367768#3 298367768#7 355607761#2 442451678#0 75036027#0 75036027#1 75036027#2 75036027#3 619019400#1 -264858336 -75036014#1 -75036014#0"/>
    </vehicle>
    <vehicle id="veh34" type="veh_pc_E5" depart="340.00">
        <route edges="319788732#1 319788732#2 75037344#1 627176989 627176990#0 627176990#1 -428073531#1 -428073531#0 442334036#1 75223322#0 75223322#1 75223322#2 75223322#3 304437030#0 304437030#1 304437030#2 304437030#3 304437030#4 304437030#5 304442660#0 304442660#1"/>
    </vehicle>
    <vehicle id="veh35" type="veh_pc_E4" depart="350.00">
        <route edges="284929209#2 35557263#2 -75036007#1 -75036007#0 35557265#1 35557265#2 35557265#3 428030875#2 428030875#3 428030875#4 428030875#5 75223332 651186341#0 651186341#1 651186341#2"/>
    </vehicle>
    <vehicle id="veh36" type="veh_pc_E5" depart="360.00">
        <route edges="563946130 284929204#1 284929204#2 120863177#0 120863177#1 120863177#2 120863177#4 410089531#1 410089531#2 435491726#1 435491726#5 435491726#9 435491726#13 435491726#15 435491726#18 435491726#20 435491726#21 435491726#22 319788732#1"/>
    </vehicle>
    <vehicle id="veh37" type="veh_pc_E6" depart="370.00">
        <route edges="430077168#0 430077169#0 430077169#1 430072721#8 618118685#1 618118686#2 412307193#0 412307193#1 442469224#1 442867200#1 442867200#2 172098498#2 410089534#0 410089534#3 410089534#4 410089534#6 410089534#7 410089534#8 410089534#9 129897418 299781215 319662804#8 355775773 35557442#0"/>
    </vehicle>
    <vehicle id="veh38" type="veh_pc_E4" depart="380.00">
        <route edges="619019400#1 619019400#2 428032853#0 428032853#1 413976459#2 413976459#3 618055289#1 428035708 391958207#6 391958207#7"/>
    </vehicle>
    <vehicle id="veh39" type="veh_pc_E4" depart="390.00">
        <route edges="304442660#0 304442660#1 304442660#2 24252801#2 24252801#3 24252801#4 344149309#3 401506730#0 401506730#1 401506730#2 401506730#3 401506730#4 401506730#5 401506730#6 401506730#7 401506730#8 618118083#1 618118082#2 412307193#0 412307193#1 442469224#1 442867200#1 442867200#2 172098498#2 410089534#0 410089534#3 410089534#4 410089534#6 410089534#7 410089534#8 410089534#9 129897418 299781215"/>
    </vehicle>
    <vehicle id="veh40" type="veh_pc_E4" depart="400.00">
        <route edges="412296576#1 35557450#2 35557450#3 331470728#13 129897454#1 412296575#1 412296575#2 435491726#1 435491726#5 435491726#9 435491726#13 435491726#15 435491726#18 75223322#0 75223322#1 75223322#2 75223322#3 304437030#0 304437030#1 304437030#2 304437030#3 304437030#4 304437030#5"/>
    </vehicle>
    <vehicle id="veh41" type="veh_pc_E4" depart="410.00">
        <route edges="412495542#0 412495542#1 279043423#0 279043423#1 430410163#6 44364644#1 44364644#2 44364644#3 129897442#5 111925884#0 111925884#1 412296575#1 412296575#2 435491726#1 435491726#5 435491726#9 435491726#13 618118082#2"/>
    </vehicle>
    <vehicle id="veh42" type="veh_pc_E6" depart="420.00">
        <route edges="35557450#1 35557450#2 35557450#3 331470728#13 129897454#1 412296575#1 412296575#2 442867200#7 172243635 412495542#0 412495542#1 279043423#0 28707280#1"/>
    </vehicle>
    <vehicle id="veh43" type="veh_pc_E5" depart="430.00">
        <route edges="75243088#4 75243088#5 401506730#0 401506730#1 401506730#2 401506730#3 401506730#4 401506730#5 401506730#6 401506730#7 401506730#8 618118083#1 618118082#2 412307193#0 412307193#1 442469224#1 442867200#1 442867200#2 172098498#2 410089534#0 410089534#3 410089534#4 120863177#4 410089530#1"/>
    </vehicle>
    <vehicle id="veh44" type="veh_pc_E6" depart="440.00">
        <route edges="129897442#3 129897442#4 129897442#5 111925884#0 111925884#1 412296575#1 412296575#2 442867200#7 172243635 111948492"/>
    </vehicle>
    <vehicle id="veh45" type="veh_pc_E5" depart="450.00">
        <route edges="144953677#1 144953677#2 370644951#5 430072721#0 430072721#3 430072721#4 430072721#5 430072721#6 430072721#7 430072721#8 618118685#1 618118686#2 435491726#13 435491726#15 75223312#1 618055292#0 618055292#1 428046226#0"/>
    </vehicle>
    <vehicle id="veh46" type="veh_pc_E6" depart="460.00">
        <route edges="442334036#0 442334036#1 435707014#4 435707014#5 618118083#1 618118082#2 412307193#0 412307193#1 442469223#1 435343301#1 144953677#0 144953677#1 144953677#2 370644951#5 370644951#6 370644951#7 370644951#9 370644951#10 370644951#11 370644951#12"/>
    </vehicle>
    <vehicle id="veh48" type="veh_pc_E4" depart="480.00">
        <route edges="75243088#2 75243088#3 75243088#4 75243088#5 401506730#0 401506730#1 401506730#2 401506730#3 401506730#4 401506730#5 401506730#6 401506730#7 401506730#8 618118083#1 618118082#2 412307193#0 412307193#1 442469224#1 442867200#1 442867200#2 172098498#2 410089534#0 410089534#3 410089534#4"/>
    </vehicle>
    <vehicle id="veh49" type="veh_pc_E4" depart="490.00">
        <route edges="75036027#3 619019400#1 619019400#2 619019400#3 619019400#4 619019400#5 619019400#6 619019400#7 619019400#8 320898734#0 320898734#1 284929204#0 284929204#1 284929204#2 331470728#6 331470728#8 331470728#9 331470728#11 331470728#12 331470728#13 44364645#2 44364645#3"/>
    </vehicle>
    <vehicle id="veh50" type="veh_pc_E6" depart="500.00">
        <route edges="-428073531#1 -428073531#0 442334036#1 435707014#4 435707014#5 618118083#1 618118082#2 435491726#13 435491726#15"/>
    </vehicle>
    <vehicle id="veh51" type="veh_pc_E6" depart="510.00">
        <route edges="430410163#3 430410163#5 430410163#6 44364644#1 44364644#2 44364644#3 129897442#5 111925884#0 111925884#1 412296575#1 412296575#2 172098498#2 410089534#0 410089534#3 410089534#4 410089534#6 410089534#7"/>
    </vehicle>
    <vehicle id="veh52" type="veh_pc_E5" depart="520.00">
        <route edges="304442660#0 304442660#1 304442660#2 24252801#2 24252801#3 24252801#4 344149309#3 401506730#0 401506730#1 401506730#2 401506730#3 401506730#4 401506730#5 401506730#6 401506730#7 401506730#8 618118083#1 618118082#2 412307193#0 412307193#1 442469224#1 430072204#0 430072204#1 430072204#2"/>
    </vehicle>
    <vehicle id="veh53" type="veh_pc_E4" depart="530.00">
        <route edges="144953677#2 370644951#5 370644951#6"/>
    </vehicle>
    <vehicle id="veh54" type="veh_pc_E4" depart="540.00">
        <route edges="391958207#5 -428035708 320898740 279864789 279864811#0 75036010#0 75036010#1 75036010#2"/>
    </vehicle>
    <vehicle id="veh55" type="veh_pc_E5" depart="550.00">
        <route edges="563946130 284929204#1 284929204#2 120863177#0 120863177#1 120863177#2 120863177#4 410089531#1 410089531#2 435491726#1 435491726#5 435491726#9 435491726#13 435491726#15 435491726#18 75223322#0 75223322#1 151316320#7 304437031"/>
    </vehicle>
    <vehicle id="veh56" type="veh_pc_E4" depart="560.00">
        <route edges="406644982#1 151316320#1 151316320#2 430072721#7 430072721#8 618118685#1 618118686#2 412307193#0 412307193#1 442469224#1 442867200#1 442867200#2 172098498#2 410089534#0 410089534#3 410089534#4 410089534#6 410089534#7 410089534#8 410089534#9 129897418 299781215 319662804#8 355775773 279864770#0 279864770#1"/>
    </vehicle>
    <vehicle id="veh57" type="veh_pc_E6" depart="570.00">
        <route edges="618315978#2 298431255#1 129897442#5 111925884#0 111925884#1 412296575#1 412296575#2 435491726#1 435491726#5 435491726#9 442317099#1 442317099#2 442309013#0 467318483#2"/>
    </vehicle>
    <vehicle id="veh58" type="veh_pc_E6" depart="580.00">
        <route edges="319662804#6 319662804#7 319662804#8 355775773 279864770#0 279864770#1 279864770#2 279864770#3 279864770#4 -479823503 331470728#0 331470728#1 120863177#0 120863177#1 120863177#2 120863177#4 410089531#1 410089531#2 435491726#1 430072204#0"/>
    </vehicle>
    <vehicle id="veh59" type="veh_pc_E4" depart="590.00">
        <route edges="428030875#3 428030875#4 428030875#5 75223332 651186341#0 651186341#1 651186341#2 435491726#9 435491726#13 435491726#15 435491726#18 75223322#0 75223322#1 75223322#2 75223322#3 304437030#0 304437030#1 304437030#2 304437030#3 304437030#4 304437030#5 304442660#0 304442660#1 304442660#2 24252801#2 24252801#3 24252801#4 24252801#5 24252801#6"/>
    </vehicle>
    <vehicle id="veh60" type="veh_pc_E5" depart="600.00">
        <route edges="435707014#4 435707014#5 618118083#1 618118082#2 412307193#0 412307193#1 442469224#1 442867200#1 442867200#2 172098498#2 410089534#0 410089534#3 410089534#4 410089534#6 410089534#7"/>
    </vehicle>
    <vehicle id="veh61" type="veh_pc_E4" depart="610.00">
        <route edges="442309013#2 442309013#3 442309013#4 428073529 442334036#1 435707014#4 435707014#5 618118083#1 618118082#2 412307193#0 412307193#1 442469224#1 442867200#1 442867200#2 172098498#2 410089534#0 410089534#3 410089534#4"/>
    </vehicle>
    <vehicle id="veh62" type="veh_pc_E5" depart="620.00">
        <route edges="-111924331#0 406644984#1 406644981#0 406644981#1 435491726#5 435491726#9 435491726#13 435491726#15 435491726#18 435491726#20 435491726#21 435491726#22 319788732#1 319788732#2 319788732#3"/>
    </vehicle>
    <vehicle id="veh63" type="veh_pc_E6" depart="630.00">
        <route edges="-442317099#2 442317099#2 442309013#0 442309013#1 442309013#2 442309013#3 442309013#4 618055292#0 618055292#1 428046226#0 428046226#1 428046226#2 428046226#3 75036027#2 75036027#3 619019400#1 619019400#2 619019400#3 619019400#4 619019400#5 619019400#6 619019400#7"/>
    </vehicle>
    <vehicle id="veh64" type="veh_pc_E4" depart="640.00">
        <route edges="618055289#1 618055289#2 428030875#5 75223332 651186341#0 651186341#1 651186341#2 442469224#1 442867200#1 442867200#2 442867200#7"/>
    </vehicle>
    <vehicle id="veh65" type="veh_pc_E4" depart="650.00">
        <route edges="319662804#8 355775773 279864770#0 279864770#1 279864770#2 279864770#3 279864770#4 -479823503 331470728#0 331470728#1 120863177#0"/>
    </vehicle>
    <vehicle id="veh66" type="veh_pc_E4" depart="660.00">
        <route edges="618055289#1 320898740 320898734#0 320898734#1 284929204#0 284929204#1 284929204#2 129897450 299781216 355775773 279864770#0 279864770#1 279864770#2 279864770#3 279864770#4 -479823503 35557265#0 75036007#0"/>
    </vehicle>
    <vehicle id="veh67" type="veh_pc_E4" depart="670.00">
        <route edges="129897442#1 129897442#2 129897442#3 129897442#4 129897442#5 111925884#0 111925884#1 412296575#1 412296575#2 435491726#1 435491726#5 442469223#1 435343301#1 144953677#0 144953677#1 144953677#2 370644951#5 370644951#6 370644951#7 370644951#9 370644951#10 401506730#5 401506730#6"/>
    </vehicle>
    <vehicle id="veh68" type="veh_pc_E5" depart="680.00">
        <route edges="120863177#4 410089531#1 410089531#2 435491726#1 435491726#5 435491726#9 435491726#13 435491726#15 435491726#18 75223322#0 75223322#1 151316320#7 28707264#1 435365881 435707014#1 435707014#3"/>
    </vehicle>
    <vehicle id="veh69" type="veh_pc_E5" depart="690.00">
        <route edges="435707014#5 618118083#1 618118082#2 412307193#0 412307193#1 442469224#1 442867200#1 442867200#2 442867200#7 172243635"/>
    </vehicle>
    <vehicle id="veh70" type="veh_pc_E5" depart="700.00">
        <route edges="401506730#2 401506730#3 401506730#4 401506730#5 401506730#6 401506730#7 401506730#8 618118083#1 618118082#2 412307193#0 412307193#1 442469224#1 442867200#1 442867200#2 442867200#7 442867200#8 412296083#1"/>
    </vehicle>
    <vehicle id="veh71" type="veh_pc_E6" depart="710.00">
        <route edges="304442660#0 304442660#1 304442660#2 24252801#2 24252801#3 24252801#4 344149309#3 401506730#0 401506730#1 401506730#2 401506730#3 401506730#4 401506730#5 401506730#6 401506730#7 401506730#8 618118083#1 618118082#2 442317099#1 442317099#2 442309013#0 467318483#2"/>
    </vehicle>
    <vehicle id="veh73" type="veh_pc_E6" depart="730.00">
        <route edges="410089534#8 410089534#9 331470728#6 331470728#8 331470728#9 428030874#0 428030874#1 120863177#4 410089531#1 410089531#2 435491726#1 435491726#5 435491726#9 435491726#13 435491726#15 435491726#18"/>
    </vehicle>
    <vehicle id="veh74" type="veh_pc_E5" depart="740.00">
        <route edges="279864811#0 75036010#0 75036010#1 -617934930 619019400#7 619019400#8 320898734#0 320898734#1 284929204#0 284929204#1 284929204#2 129897418 299781215 319662804#8"/>
    </vehicle>
    <vehicle id="veh75" type="veh_pc_E6" depart="750.00">
        <route edges="75243088#2 75243088#3 75243088#4 75243088#5 401506730#0 401506730#1 401506730#2 401506730#3 401506730#4 401506730#5 401506730#6 401506730#7 430077168#0 430077169#0 430077169#1 430077169#2 435343301#1 144953677#0 144953677#1 144953677#2 370644951#5 430072721#0 430072721#3 430072721#4"/>
    </vehicle>
    <vehicle id="veh76" type="veh_pc_E4" depart="760.00">
        <route edges="370644951#9 370644951#10 401506730#5 401506730#6 401506730#7 401506730#8 618118083#1 618118082#2 412307193#0 412307193#1 442469224#1 442867200#1 442867200#2 172098498#2 410089534#0 410089534#3 410089534#4 120863177#4 410089531#1 410089531#2"/>
    </vehicle>
    <vehicle id="veh78" type="veh_pc_E6" depart="780.00">
        <route edges="331470728#0 331470728#1 120863177#0 120863177#1 120863177#2 120863177#4 410089531#1 410089531#2 442867200#7 172243635 111948492 618315978#1 618315978#2 412495541#1 412495541#2 412495541#3"/>
    </vehicle>
    <vehicle id="veh80" type="veh_pc_E6" depart="800.00">
        <route edges="120863177#4 410089531#1 410089531#2 435491726#1 435491726#5 435491726#9 435491726#13 435491726#15 435491726#18 435491726#20 435491726#21 75036013#0 75036013#1 75036013#2 428046226#3"/>
    </vehicle>
    <vehicle id="veh81" type="veh_pc_E5" depart="810.00">
        <route edges="298367768#2 298367768#3 298367768#7 355607761#2 442451678#0 435707014#1 435707014#3 75223322#0 24252788#1 430077168#0 430077169#0 430077169#1 430072721#8 618118685#1"/>
    </vehicle>
    <vehicle id="veh83" type="veh_pc_E5" depart="830.00">
        <route edges="298431255#1 129897442#5 111925884#0 111925884#1 412296575#1 412296575#2 435491726#1 435491726#5 442469223#1 435343301#1 151316320#1 151316320#2 430072721#7 430077169#2"/>
    </vehicle>
    <vehicle id="veh84" type="veh_pc_E4" depart="840.00">
        <route edges="28707264#1 435365881 435707014#1 435707014#3 435707014#4 435707014#5 618118083#1 618118082#2 442317099#1 442317099#2 442317100 391958207#7 24252780"/>
    </vehicle>
    <vehicle id="veh85" type="veh_pc_E5" depart="850.00">
        <route edges="627176990#0 627176990#1 -428073531#1 -428073531#0 442334036#1 435707014#4 435707014#5 618118083#1 618118082#2 412307193#0 412307193#1 442469224#1 442867200#1 442867200#2 172098498#2 410089534#0 35557450#1 412296576#2"/>
    </vehicle>
    <vehicle id="veh86" type="veh_pc_E6" depart="860.00">
        <route edges="401506730#1 401506730#2 401506730#3 401506730#4 401506730#5 401506730#6 401506730#7 401506730#8 618118083#1 618118082#2 442317099#1 442317099#2 442309013#0 442309013#1 442309013#2"/>
    </vehicle>
    <vehicle id="veh87" type="veh_pc_E4" depart="870.00">
        <route edges="442451694 391958206#0 413976463#0 75036032 619019400#1 619019400#2 619019400#3 619019400#4 619019400#5 619019400#6 619019400#7 619019400#8 320898734#0 320898734#1 284929204#0 284929204#1 284929204#2 129897450 299781216 355775773 279864770#0 279864770#1 279864770#2 279864770#3 279864770#4"/>
    </vehicle>
    <vehicle id="veh88" type="veh_pc_E4" depart="880.00">
        <route edges="129897449 -479823503 331470728#0 331470728#1 120863177#0 120863177#1 120863177#2 120863177#4 410089531#1 410089531#2 435491726#1 435491726#5 442469223#1 435343301#1 144953677#0 144953677#1 144953677#2 370644951#5"/>
    </vehicle>
    <vehicle id="veh90" type="veh_pc_E6" depart="900.00">
        <route edges="435491726#20 435491726#21 75036013#0 -428073531#0 442334036#1 435707014#4 435707014#5 618118083#1 618118082#2 412307193#0 412307193#1 442469223#1 430077169#4 430077169#5"/>
    </vehicle>
    <vehicle id="veh91" type="veh_pc_E4" depart="910.00">
        <route edges="75223322#1 151316320#7 28707264#1 24252788#0 24252788#1 430077168#0 430077169#0 430077169#1 430077169#2 435343301#1 144953677#0"/>
    </vehicle>
    <vehicle id="veh92" type="veh_pc_E4" depart="920.00">
        <route edges="35557450#3 331470728#13 44364645#2 44364645#3 44364645#4 410089534#7 410089534#8 410089534#9 129897418 299781215 319662804#8 355775773 279864770#0 279864770#1 279864770#2 279864770#3 279864770#4 -479823503 331470728#0"/>
    </vehicle>
    <vehicle id="veh93" type="veh_pc_E6" depart="930.00">
        <route edges="44364645#7 284929204#2 120863177#0 120863177#1 120863177#2 120863177#4 410089531#1 410089531#2 435491726#1 435491726#5 435491726#9 435491726#13 435491726#15 435491726#18 75223322#0 75223322#1 75223322#2 75223322#3 304437030#0"/>
    </vehicle>
    <vehicle id="veh94" type="veh_pc_E4" depart="940.00">
        <route edges="279864770#4 -479823503 331470728#0 331470728#1 120863177#0 120863177#1 120863177#2 120863177#4 410089530#1 430072204#1 430072204#2 391958207#1 391958207#2"/>
    </vehicle>
    <vehicle id="veh96" type="veh_pc_E4" depart="960.00">
        <route edges="304437030#0 304437030#1 304437030#2 304437030#3 304437030#4 304437030#5 304442660#0 304442660#1 304442660#2 24252801#2 24252801#3 24252801#4 344149309#3 401506730#0 401506730#1 401506730#2 401506730#3 401506730#4 401506730#5 401506730#6 401506730#7 401506730#8 435491726#18 435491726#20 435491726#21 435491726#22 75036027#0 75036027#1 75036027#2 75036027#3 619019400#1 619019400#2 619019400#3 619019400#4"/>
    </vehicle>
    <vehicle id="veh97" type="veh_pc_E4" depart="970.00">
        <route edges="391958207#0 391958207#1 391958207#2 391958207#3 75223332 651186341#0 651186341#1 651186341#2 442469224#1 442867200#1 442867200#2 172098498#2 410089534#0 35557450#1 35557450#2 44364645#3"/>
    </vehicle>
    <vehicle id="veh98" type="veh_pc_E4" depart="980.00">
        <route edges="412296084 618315978#2 298431255#1 129897442#5 111925884#0 111925884#1 412296575#1 412296575#2 435491726#1 435491726#5 435491726#9 435491726#13 435491726#15 435491726#18 75223322#0 75223322#1 75223322#2 75223322#3 304437030#0 304437030#1 304437030#2 304437030#3 304437030#4 304437030#5 304442660#0 304442660#1 304442660#2 118291788#0 118291788#1"/>
    </vehicle>
    <vehicle id="veh99" type="veh_pc_E5" depart="990.00">
        <route edges="75243088#5 401506730#0 401506730#1 401506730#2 401506730#3 401506730#4 401506730#5 401506730#6 401506730#7 401506730#8 618118083#1 618118082#2 412307193#0 412307193#1 442469224#1 442867200#1 442867200#2 442867200#7 442867200#8"/>
    </vehicle>
    <vehicle id="veh100" type="veh_pc_E5" depart="1000.00">
        <route edges="75036027#2 75036027#3 619019400#1 619019400#2 619019400#3 619019400#4 619019400#5"/>
    </vehicle>
    <vehicle id="veh101" type="veh_pc_E5" depart="1010.00">
        <route edges="44364644#1 172244021#2 28707280#0 279043423#1"/>
    </vehicle>
    <vehicle id="veh102" type="veh_pc_E6" depart="1020.00">
        <route edges="401506730#6 151316320#6 151316320#7 28707264#1"/>
    </vehicle>
    <vehicle id="veh103" type="veh_pc_E4" depart="1030.00">
        <route edges="35557450#2 44364645#3 44364645#4 44364645#7 284929204#2 120863177#0 120863177#1"/>
    </vehicle>
    <vehicle id="veh104" type="veh_pc_E4" depart="1040.00">