<?xml version="1.0" encoding="UTF-8"?>

<!-- generated on Wed Oct 16 11:16:42 2019 by Eclipse SUMO duarouter Version 1.2.0
<configuration xmlns:xsi="http://www.w3.org/2001/XMLSchema-instance" xsi:noNamespaceSchemaLocation="http://sumo.dlr.de/xsd/duarouterConfiguration.xsd">

    <input>
        <net-file value="osm.net.xml"/>
        <route-files value="osm.truck.trips.xml"/>
    </input>

    <output>
        <output-file value="routes.rou.xml"/>
        <alternatives-output value="routes.rou.alt.xml"/>
    </output>

</configuration>
-->

<routes xmlns:xsi="http://www.w3.org/2001/XMLSchema-instance" xsi:noNamespaceSchemaLocation="http://sumo.dlr.de/xsd/routes_file.xsd">
    <vType id="truck_truck_E5" vClass="truck" emissionClass="HBEFA3/LDV_G_EU5"/>
    <vehicle id="truck12" type="truck_truck_E5" depart="49399.00">
        <route edges="75036027#1 75036027#2 75036027#3 619019400#1 619019400#2 619019400#3 619019400#4 619019400#5 619019400#6 619019400#7 619019400#8 320898734#0 320898734#1"/>
    </vehicle>
    <vType id="truck_truck_E4" vClass="truck" emissionClass="HBEFA3/LDV_G_EU4"/>
    <vehicle id="truck8" type="truck_truck_E4" depart="51115.00">
        <route edges="279864813#0 413976463#0 75036032 619019400#1 619019400#2 619019400#3 619019400#4 619019400#5 619019400#6 619019400#7 619019400#8 320898734#0 428030875#3 428030875#4 428030875#5 75223332 651186341#0 651186341#1 651186341#2 442469224#1 442867200#1 442867200#2 442867200#7 172243635 111948492 618315978#1 618315978#2 298431255#1 129897442#5 412495543#0"/>
    </vehicle>
    <vType id="truck_truck_E6" vClass="truck" emissionClass="HBEFA3/LDV_G_EU6"/>
    <vehicle id="truck18" type="truck_truck_E6" depart="59353.00">
        <route edges="44364645#4 410089534#7 410089534#8 410089534#9 129897418 299781215 319662804#8 355775773 279864770#0 279864770#1 279864770#2 279864770#3 279864770#4 -479823503 35557265#0 35557265#1 35557265#2 35557265#3 428030875#2 428030875#3 428030875#4"/>
    </vehicle>
    <vehicle id="truck20" type="truck_truck_E5" depart="59353.00">
        <route edges="430410163#6 44364644#1 44364644#2 44364644#3 129897442#5 111925884#0 111925884#1 412296575#1 412296575#2 172098498#2 410089534#0 410089534#3 410089534#4 410089534#6 410089534#7 654035438 -654035438"/>
    </vehicle>
    <vehicle id="truck9" type="truck_truck_E4" depart="81844.00">
        <route edges="44364379#4 435393029#1 435393029#2 172098498#2 410089534#0 410089534#3 410089534#4 410089534#6 410089534#7 654035438 331470728#8 331470728#9 129897427 -129897427"/>
    </vehicle>
    <vehicle id="truck0" type="truck_truck_E6" depart="84397.00">
        <route edges="428057111 618315978#1 618315978#2 298431255#1 129897442#5 111925884#0 111925884#1 412296575#1 412296575#2 435491726#1 435491726#5 435491726#9 435491726#13 435491726#15 435491726#18 75223322#0 75223322#1 151316320#7 304437031 -437506344"/>
    </vehicle>
    <vehicle id="truck1" type="truck_truck_E6" depart="84397.00">
        <route edges="299781215 319662804#8 355775773 279864770#0 279864770#1 279864770#2 279864770#3 279864770#4 -479823503 35557265#0 35557265#1 35557265#2 35557265#3 428030875#2 320898734#1 284929209#0"/>
    </vehicle>
    <vType id="truck_truck_E3" vClass="truck" emissionClass="HBEFA3/LDV_G_EU3"/>
    <vehicle id="truck2" type="truck_truck_E3" depart="84397.00">
        <route edges="435491726#5 442469223#1 435343301#1 151316320#1 151316320#2 430072721#7"/>
    </vehicle>
    <vehicle id="truck3" type="truck_truck_E3" depart="84397.00">
        <route edges="619019400#2 619019400#3 619019400#4 619019400#5 619019400#6 619019400#7 619019400#8 320898734#0 320898734#1 284929204#0 284929204#1 284929204#2 120863177#0"/>
    </vehicle>
    <vehicle id="truck4" type="truck_truck_E5" depart="84397.00">
        <route edges="35557450#3 331470728#13 129897454#1 412296575#1 412296575#2 435491726#1 435491726#5 435491726#9 442317099#1 442317099#2 -442309012#2 -442309012#1"/>
    </vehicle>
    <vehicle id="truck5" type="truck_truck_E3" depart="84397.00">
        <route edges="279864811#0 75036010#0 75036010#1 -617934930 619019400#7 619019400#8 320898734#0 428030875#3 428030875#4 428030875#5 75223332 651186341#0 651186341#1 651186341#2 442469223#1 435343301#1 151316320#1 151316320#2 151316320#3 151316320#5 401506730#7"/>
    </vehicle>
    <vehicle id="truck6" type="truck_truck_E5" depart="84397.00">
        <route edges="-442309012#0 651186341#1 651186341#2 442469224#1 442867200#1 442867200#2 172098498#2 410089534#0 410089534#3 410089534#4 410089534#6 410089534#7 410089534#8 410089534#9 129897418 299781215 319662804#8 355775773 279864770#0 279864770#1 279864770#2"/>
    </vehicle>
    <vType id="truck_truck_E1" vClass="truck" emissionClass="HBEFA3/LDV_G_EU1"/>
    <vehicle id="truck7" type="truck_truck_E1" depart="84397.00">
        <route edges="430072204#0 410089530#2 651186341#1 651186341#2 442469224#1 442867200#1 442867200#2 172098498#2 410089534#0 410089534#3 410089534#4 410089534#6 410089534#7"/>
    </vehicle>
    <vType id="truck_truck_E2" vClass="truck" emissionClass="HBEFA3/LDV_G_EU2"/>
    <vehicle id="truck10" type="truck_truck_E2" depart="84397.00">
        <route edges="44364379#2 44364379#3 172242987#0 -111924331#1 430077169#8"/>
    </vehicle>
    <vehicle id="truck11" type="truck_truck_E5" depart="84397.00">
        <route edges="320898740 320898734#0 428030875#3 428030875#4 428030875#5 75223332 651186341#0 651186341#1 651186341#2 442469224#1 442867200#1 442867200#2 442867200#7 172243635 111948492 618315978#1 618315978#2 412495541#1 412495541#2 39413204#2 172244021#1"/>
    </vehicle>
    <vehicle id="truck14" type="truck_truck_E5" depart="84397.00">
        <route edges="618055289#1 428035708 391958207#6 391958207#7 391958207#8 391958207#9 618055290 428046226#0 428046226#1 428046226#2 428046226#3 428046226#4 391958206#0 413976463#0 413976463#2"/>
    </vehicle>
    <vehicle id="truck15" type="truck_truck_E5" depart="84397.00">
        <route edges="44364379#3 44364379#4 435393029#1 435393029#2 435491726#1 435491726#5 435491726#9 435491726#13 435491726#15"/>
    </vehicle>
    <vehicle id="truck16" type="truck_truck_E6" depart="84397.00">
        <route edges="410089534#0 410089534#3 410089534#4 120863177#4 410089531#1 410089531#2 435491726#1 435491726#5 435491726#9 435491726#13 435491726#15 435491726#18 435491726#20 435491726#21 435491726#22 319788732#1 319788732#2 75037344#1"/>
    </vehicle>
    <vehicle id="truck17" type="truck_truck_E4" depart="84397.00">
        <route edges="344149309#0 344149309#3 401506730#0 401506730#1 401506730#2 401506730#3 401506730#4 401506730#5 401506730#6 401506730#7 401506730#8 618118083#1 618118082#2 412307193#0 412307193#1 442469224#1 442867200#1 442867200#2 442867200#7 442867200#8 412296083#1"/>
    </vehicle>
    <vehicle id="truck19" type="truck_truck_E1" depart="84397.00">
        <route edges="618055291#2 618055291#3 618055291#4 619019400#8 320898734#0 428030875#3 428030875#4 428030875#5 75223332 651186341#0 651186341#1 651186341#2 442469224#1 442867200#1 442867200#2 442867200#7 172243635 111948492 618315978#1 618315978#2 412495541#1"/>
    </vehicle>
    <vehicle id="truck21" type="truck_truck_E6" depart="84397.00">
        <route edges="284929204#2 120863177#0 120863177#1 120863177#2 120863177#4 410089531#1 410089531#2 435491726#1 435491726#5 435491726#9 435491726#13 435491726#15 435491726#18 75223322#0 75223322#1 75223322#2 75223322#3 304437030#0 304437030#1 304437030#2 304437030#3 304437030#4 304437030#5 304442660#0"/>
    </vehicle>
    <vehicle id="truck22" type="truck_truck_E1" depart="84397.00">
        <route edges="111948492 618315978#1 618315978#2 298431255#1 129897442#5 111925884#0 111925884#1 412296575#1 412296575#2 435491726#1 435491726#5 435491726#9 435491726#13 435491726#15 435491726#18 75223322#0 75223322#1 151316320#7 28707264#1"/>
    </vehicle>
    <vehicle id="truck23" type="truck_truck_E6" depart="84397.00">
        <route edges="126587263#2 406644982#0 406644982#1 151316320#1 151316320#2 151316320#3 151316320#5 151316320#6 75223322#2 75223322#3 304437030#0 304437030#1 304437030#2"/>
    </vehicle>
    <vehicle id="truck24" type="truck_truck_E6" depart="84397.00">
        <route edges="428046226#3 75036027#2 413976459#1 413976459#2 413976459#3 618055289#1 618055289#2 618055289#3 336833691#0"/>
    </vehicle>
    <vehicle id="truck5800" type="truck_truck_E1" depart="26997.00">
        <route edges="401506730#1 401506730#2 401506730#3 401506730#4 401506730#5 401506730#6 401506730#7 401506730#8 618118083#1 618118082#2 412307193#0 412307193#1"/>
    </vehicle>
    <vehicle id="truck4627" type="truck_truck_E4" depart="29160.00">
        <route edges="428030874#0 44364645#4 410089534#7 410089534#8 410089534#9 129897418 299781215 319662804#8 355775773 279864770#0 279864770#1 279864770#2 279864770#3 279864770#4 -479823503 35557265#0 35557265#1 35557265#2 35557265#3 428030875#2 320898734#1"/>
    </vehicle>
    <vehicle id="truck6501" type="truck_truck_E5" depart="29212.00">
        <route edges="-479823503 331470728#0 331470728#1 120863177#0 120863177#1 120863177#2 120863177#4 410089531#1 410089531#2 442867200#7 172243635 111948492 618315978#1 618315978#2 298431255#1 129897442#5 412495543#0"/>
    </vehicle>
    <vehicle id="truck1162" type="truck_truck_E5" depart="29290.00">
        <route edges="75223332 651186341#0 651186341#1 651186341#2 442469223#1 435343301#1 151316320#1 151316320#2 430072721#7 430072721#8"/>
    </vehicle>
    <vehicle id="truck2564" type="truck_truck_E5" depart="29584.00">
        <route edges="319662804#5 319662804#6 319662804#7 319662804#8 355775773 279864770#0 279864770#1 279864770#2 279864770#3 279864770#4 -479823503 331470728#0 331470728#1 120863177#0 120863177#1 120863177#2 120863177#4 410089531#1 410089531#2 435491726#1 435491726#5 442469223#1 435343301#1 151316320#1 151316320#2 151316320#3 151316320#5"/>
    </vehicle>
    <vehicle id="truck4056" type="truck_truck_E5" depart="29584.00">
        <route edges="435491726#18 435707014#4 435707014#5 75223312#1 618055292#0 618055292#1 618055291#0 618055291#1 618055291#2 618055291#3 618055291#4 619019400#8 320898734#0 320898734#1 284929204#0 284929204#1 284929204#2 120863177#0 120863177#1"/>
    </vehicle>
    <vehicle id="truck3105" type="truck_truck_E5" depart="29585.00">
        <route edges="435343301#1 151316320#1 151316320#2 151316320#3 151316320#5 151316320#6 75223322#2 75223322#3 304437030#0 304437030#1 304437030#2 304437030#3 304437030#4 304437030#5 304442660#0 304442660#1 304442660#2 24252801#2 24252801#3 24252801#4 344149309#3 401506730#0 401506730#1"/>
    </vehicle>
    <vehicle id="truck4151" type="truck_truck_E6" depart="29585.00">
        <route edges="75223322#2 75223322#3 304437030#0 304437030#1 304437030#2 304437030#3 304437030#4 304437030#5 304442660#0 304442660#1 304442660#2 24252801#2 24252801#3 24252801#4 344149309#3 401506730#0 401506730#1 401506730#2 401506730#3 401506730#4 401506730#5 401506730#6 401506730#7 401506730#8"/>
    </vehicle>
    <vehicle id="truck8521" type="truck_truck_E6" depart="29585.00">
        <route edges="428030875#5 391958207#5 -428035708 320898740 279864789 279864811#0 75036010#0 75036010#1 75036010#2 320898743#1 320898743#2 619019400#3"/>
    </vehicle>
    <vehicle id="truck2282" type="truck_truck_E5" depart="29615.00">
        <route edges="331470728#12 331470728#13 129897454#1 412296575#1 412296575#2 435491726#1 430072204#0 430072204#1 430072204#2 391958207#1"/>
    </vehicle>
    <vehicle id="truck8163" type="truck_truck_E5" depart="29689.00">
        <route edges="412495542#0 412495542#1 279043423#0 279043423#1 430410163#6 44364644#1 44364644#2 44364644#3 129897442#5 111925884#0 111925884#1 412296575#1 412296575#2 435491726#1 435491726#5 435491726#9 435491726#13 435491726#15 435491726#18 75223322#0 75223322#1 75223322#2 75223322#3 304437030#0 304437030#1 304437030#2 304437030#3 304437030#4 304437030#5 304442660#0 304442660#1 304442660#2 24252801#2 24252801#3 24252801#4 24252801#5"/>
    </vehicle>
    <vehicle id="truck1262" type="truck_truck_E4" depart="31065.00">
        <route edges="410089532#0 410089530#1 430072204#1 430072204#2 430072204#3 336833695#0 336833695#1 284929204#0 284929204#1"/>
    </vehicle>
    <vehicle id="truck1492" type="truck_truck_E5" depart="31065.00">
        <route edges="370644951#2 370644951#5 430072721#0 430072721#3 430072721#4 430072721#5 430072721#6 430072721#7 430072721#8 618118685#1 618118686#2 412307193#0 412307193#1 442469224#1 442867200#1 442867200#2 442867200#7 172243635 111948492 618315978#1 618315978#2 298431255#1 298431255#2 298431255#3 298431255#4"/>
    </vehicle>
    <vehicle id="truck5318" type="truck_truck_E5" depart="31065.00">
        <route edges="435707014#5 435491726#18 75223322#0 75223322#1 151316320#7 28707264#1 24252788#0"/>
    </vehicle>
    <vehicle id="truck41" type="truck_truck_E5" depart="31171.00">
        <route edges="412495543#0 298431255#1 129897442#5 111925884#0 111925884#1 412296575#1 412296575#2 435491726#1 435491726#5 435491726#9 435491726#13 435491726#15 435491726#18 435491726#20 435491726#21 435491726#22 75036027#0 75036027#1 75036027#2 75036027#3 619019400#1 619019400#2 619019400#3 619019400#4 619019400#5"/>
    </vehicle>
    <vehicle id="truck53" type="truck_truck_E4" depart="31171.00">
        <route edges="129897442#1 129897442#2 129897442#3 129897442#4 129897442#5 111925884#0 111925884#1 412296575#1 412296575#2 435491726#1 435491726#5 442469223#1 435343301#1 144953677#0 144953677#1 144953677#2 370644951#5 370644951#6 370644951#7 370644951#9 370644951#10 370644951#11 370644951#12"/>
    </vehicle>
    <vehicle id="truck87" type="truck_truck_E3" depart="31171.00">
        <route edges="44364379#3 44364379#4 430410163#1 430410163#2 430410163#3 430410163#5 279043423#2"/>
    </vehicle>
    <vehicle id="truck100" type="truck_truck_E6" depart="31171.00">
        <route edges="75037344#1 442451693 442451694 391958206#0 413976463#0 75036032 619019400#1 619019400#2 619019400#3 619019400#4 619019400#5 619019400#6 619019400#7 619019400#8 320898734#0 320898734#1 284929209#0 284929209#1 284929209#2 35557263#2 -75036007#1 75036007#1"/>
    </vehicle>
    <vehicle id="truck109" type="truck_truck_E6" depart="31171.00">
        <route edges="151316320#7 304437031 298367768#2 298367768#3 298367768#7 319788732#3 304549060"/>
    </vehicle>
    <vehicle id="truck134" type="truck_truck_E6" depart="31171.00">
        <route edges="430072204#2 391958207#1 391958207#2 391958207#3 75223332 651186341#0 651186341#1 651186341#2 442469224#1 442867200#1 517107201#0 517107201#1 -172242987#0"/>
    </vehicle>
    <vehicle id="truck150" type="truck_truck_E4" depart="31171.00">
        <route edges="619019400#7 619019400#8 320898734#0 320898734#1 284929204#0 284929204#1 284929204#2 331470728#6 331470728#8 331470728#9 428030874#0 44364645#4 410089534#7"/>
    </vehicle>
    <vehicle id="truck158" type="truck_truck_E6" depart="31171.00">
        <route edges="35557265#3 428030875#2 428030875#3 428030875#4 428030875#5"/>
    </vehicle>
    <vehicle id="truck162" type="truck_truck_E5" depart="31171.00">
        <route edges="-437506344 28707264#1 435365881 435707014#1 435707014#3 435707014#4 435707014#5 435491726#18 435491726#20 435491726#21"/>
    </vehicle>
    <vehicle id="truck178" type="truck_truck_E5" depart="31171.00">
        <route edges="75036027#3 619019400#1 619019400#2 619019400#3 619019400#4 619019400#5 619019400#6 619019400#7 619019400#8 320898734#0 428030875#3 428030875#4 428030875#5 75223332 651186341#0 651186341#1 651186341#2 442469224#1 442867200#1 442867200#2 442867200#7 172243635 111948492 618315978#1 618315978#2 298431255#1 298431255#2 298431255#3 298431255#4"/>
    </vehicle>
    <vehicle id="truck180" type="truck_truck_E5" depart="31171.00">
        <route edges="435491726#20 435491726#21 75036013#0 -428073531#0 442334036#1 435707014#4 435707014#5 618118083#1 618118082#2 412307193#0 412307193#1 442469224#1 442867200#1 442867200#2 172098498#2 410089534#0 410089534#3 410089534#4 410089534#6 410089534#7 654035438 331470728#8 331470728#9 129897427 319662804#2 319662804#3 319662804#5"/>
    </vehicle>
    <vehicle id="truck250" type="truck_truck_E6" depart="31171.00">
        <route edges="428032853#2 442334036#0 442334036#1 435707014#4 435707014#5 618118083#1 618118082#2 442317099#1 442317099#2 -442309012#2 -442309012#1 -442309012#0"/>
    </vehicle>
    <vehicle id="truck306" type="truck_truck_E6" depart="31171.00">
        <route edges="412495542#1 279043423#0 279043423#1 430410163#6 44364644#1 44364644#2 44364644#3 129897442#5 111925884#0 111925884#1 412296575#1 412296575#2 435491726#1 435491726#5 435491726#9 442317099#1 442317099#2 442317100 391958207#7 391958207#8"/>
    </vehicle>
    <vehicle id="truck366" type="truck_truck_E2" depart="31171.00">
        <route edges="651186341#0 651186341#1 651186341#2 435491726#9 435491726#13 435491726#15 435491726#18 75223322#0 75223322#1 75223322#2 75223322#3 304437030#0 304437030#1 304437030#2 304437030#3 304437030#4 304437030#5 304442660#0 304442660#1 304442660#2 24252801#2 24252801#3 24252801#4 24252801#5 24252801#6"/>
    </vehicle>
    <vehicle id="truck368" type="truck_truck_E5" depart="31171.00">
        <route edges="401506730#1 401506730#2 401506730#3 401506730#4 401506730#5 401506730#6 401506730#7 401506730#8 75223312#1 618055292#0 618055292#1 618055291#0 618055291#1 618055291#2 618055291#3 618055291#4 619019400#8 320898734#0 320898734#1 284929204#0 284929204#1 284929204#2 120863177#0 120863177#1"/>
    </vehicle>
    <vehicle id="truck378" type="truck_truck_E5" depart="31171.00">
        <route edges="410089534#4 410089534#6 410089534#7 654035438 331470728#8 331470728#9 129897427 319662804#2 319662804#3 319662804#5 35557447#0 35557447#1"/>
    </vehicle>
    <vehicle id="truck408" type="truck_truck_E4" depart="31171.00">
        <route edges="442334023 627176990#0 627176990#1 75036027#1 75036027#2 75036027#3 619019400#1 619019400#2 619019400#3 619019400#4 619019400#5 619019400#6 75036020 -617934930"/>
    </vehicle>
    <vehicle id="truck434" type="truck_truck_E2" depart="31171.00">
        <route edges="151316320#2 430072721#7 430072721#8 618118685#1 618118686#2 412307193#0 412307193#1 442469224#1 442867200#1 442867200#2 172098498#2 410089534#0 410089534#3 410089534#4 120863177#4 410089531#1 410089531#2"/>
    </vehicle>
    <vehicle id="truck447" type="truck_truck_E5" depart="31171.00">
        <route edges="279043423#1 430410163#6 44364644#1 44364644#2 44364644#3 129897442#5 111925884#0 111925884#1 412296575#1 412296575#2 172098498#2 410089534#0 410089534#3 410089534#4 410089534#6 410089534#7 410089534#8 410089534#9 129897418 299781215 319662804#8 355775773 279864770#0 279864770#1 279864770#2 279864770#3 279864770#4 -479823503 35557265#0 75036007#0 75036007#1 35557263#3"/>
    </vehicle>
    <vehicle id="truck457" type="truck_truck_E4" depart="31171.00">
        <route edges="428030875#1 428030875#2 320898734#1 284929204#0 284929204#1 284929204#2 331470728#6 331470728#8 331470728#9 331470728#11 331470728#12"/>
    </vehicle>
    <vehicle id="truck480" type="truck_truck_E5" depart="31171.00">
        <route edges="430072721#8 618118685#1 618118686#2 412307193#0 412307193#1 442469224#1 442867200#1 442867200#2 442867200#7 172243635 412495542#0"/>
    </vehicle>
    <vehicle id="truck510" type="truck_truck_E6" depart="31171.00">
        <route edges="279864770#2 279864770#3 279864770#4 -479823503 35557265#0 35557265#1 35557265#2 35557265#3 428030875#2 320898734#1 284929204#0"/>
    </vehicle>
    <vehicle id="truck533" type="truck_truck_E6" depart="31171.00">
        <route edges="428046226#2 -75036013#2 -75036013#1 -428073531#0 442334036#1 435707014#4 435707014#5 618118083#1 618118082#2 412307193#0 412307193#1 442469224#1 442867200#1 442867200#2 172098498#2 410089534#0 410089534#3 410089534#4 410089534#6 410089534#7 410089534#8"/>
    </vehicle>
    <vehicle id="truck536" type="truck_truck_E5" depart="31171.00">
        <route edges="428030875#1 428030875#2 320898734#1 284929204#0 284929204#1 284929204#2 129897418"/>
    </vehicle>
    <vehicle id="truck554" type="truck_truck_E5" depart="31171.00">
        <route edges="428030874#0 44364645#4 410089534#7 654035438 331470728#8 331470728#9 331470728#11"/>
    </vehicle>
    <vehicle id="truck570" type="truck_truck_E6" depart="31171.00">
        <route edges="435707014#4 435707014#5 75223312#1 618055292#0 618055292#1 618055291#0 618055291#1 618055291#2 618055291#3 618055291#4 619019400#8 320898734#0 320898734#1 284929204#0"/>
    </vehicle>
    <vehicle id="truck579" type="truck_truck_E5" depart="31171.00">
        <route edges="442309012#2 -442309012#2 -442309012#1 -442309012#0 651186341#1 651186341#2 442469224#1 442867200#1 442867200#2 442867200#7 172243635 111948492 618315978#1 618315978#2 298431255#1 129897442#5"/>
    </vehicle>
    <vehicle id="truck606" type="truck_truck_E6" depart="31171.00">
        <route edges="619019400#8 320898734#0 320898734#1 284929204#0 284929204#1 284929204#2 129897450 299781216 355775773 279864770#0 279864770#1 279864770#2 279864770#3 279864770#4 -479823503 331470728#0 331470728#1"/>
    </vehicle>
    <vehicle id="truck626" type="truck_truck_E6" depart="31171.00">
        <route edges="412296083#1 129897454#1 412296575#1 412296575#2 435491726#1 435491726#5 435491726#9 435491726#13 435491726#15 435491726#18 435491726#20 435491726#21 435491726#22 319788732#1 319788732#2 75037344#1 442451693 442451694"/>
    </vehicle>
    <vehicle id="truck629" type="truck_truck_E4" depart="31171.00">
        <route edges="319662804#6 319662804#7 319662804#8 355775773 279864770#0 279864770#1 279864770#2 279864770#3 279864770#4 -479823503 35557265#0 35557265#1 35557265#2 35557265#3 428030875#2 428030875#3 428030875#4 428030875#5 391958207#5 391958207#6 391958207#7 391958207#8 391958207#9"/>
    </vehicle>
    <vehicle id="truck630" type="truck_truck_E5" depart="31171.00">
        <route edges="151316320#6 151316320#7 28707264#1 435365881 75036027#0 75036027#1 75036027#2 75036027#3 619019400#1 -264858336 -75036014#1 -75036014#0"/>
    </vehicle>
    <vehicle id="truck631" type="truck_truck_E6" depart="31171.00">
        <route edges="129897418 299781215 319662804#8 355775773 279864770#0 279864770#1 279864770#2 279864770#3 279864770#4 -479823503 35557265#0 35557265#1 35557265#2 35557265#3 35557265#4 35557265#5 279864811#0 75036010#0 75036010#1 75036010#2 320898743#1 320898743#2 619019400#3 619019400#4 619019400#5 619019400#6"/>
    </vehicle>
    <vehicle id="truck671" type="truck_truck_E5" depart="31171.00">
        <route edges="44364379#4 435393029#1 435393029#2 435491726#1 430072204#0 430072204#1 430072204#2 391958207#1 391958207#2 391958207#3 391958207#5 391958207#6"/>
    </vehicle>
    <vehicle id="truck678" type="truck_truck_E5" depart="31171.00">
        <route edges="298367761#1 298367761#2 298367761#3 298367761#6 -437506344 28707264#1 435365881 75036027#0 75036027#1 428046226#4"/>
    </vehicle>
    <vehicle id="truck681" type="truck_truck_E5" depart="31171.00">
        <route edges="618055289#2 428030875#5 75223332 651186341#0 651186341#1 651186341#2 435491726#9 435491726#13 435491726#15 435491726#18 75223322#0 75223322#1 75223322#2 75223322#3 304437030#0 304437030#1 304437030#2 304437030#3 304437030#4 304437030#5"/>
    </vehicle>
    <vehicle id="truck695" type="truck_truck_E5" depart="31171.00">
        <route edges="370644951#5 430072721#0 430072721#3 430072721#4 430072721#5 430072721#6 430072721#7 430072721#8 618118685#1 618118686#2 412307193#0 412307193#1 442469224#1 442867200#1 442867200#2 172098498#2 410089534#0 410089534#3 410089534#4 410089534#6 410089534#7 654035438 331470728#8 331470728#9 129897427 -129897427"/>
    </vehicle>
    <vehicle id="truck776" type="truck_truck_E5" depart="31171.00">
        <route edges="129897442#5 111925884#0 111925884#1 412296575#1 412296575#2 172098498#2 410089534#0 410089534#3 410089534#4 410089534#6 410089534#7 410089534#8 410089534#9 129897418 299781215 319662804#8 355775773 279864770#0 279864770#1 279864770#2 279864770#3"/>
    </vehicle>
    <vehicle id="truck788" type="truck_truck_E2" depart="31171.00">
        <route edges="442334036#1 435491726#20 435491726#21 75036013#0 75036013#1 75036013#2 428046226#3"/>
    </vehicle>
    <vehicle id="truck794" type="truck_truck_E5" depart="31171.00">
        <route edges="320898743#1 320898743#2 428032853#0 428032853#1 428032853#2 428046226#1 428046226#2 -75036013#2 -75036013#1 75036013#1"/>
    </vehicle>
    <vehicle id="truck809" type="truck_truck_E5" depart="31171.00">
        <route edges="304437030#5 304442660#0 304442660#1 304442660#2 24252801#2 24252801#3 24252801#4 344149309#3 401506730#0 401506730#1 401506730#2 401506730#3 401506730#4 401506730#5 401506730#6 401506730#7 401506730#8 435491726#18 435491726#20 435491726#21 435491726#22 75036027#0"/>
    </vehicle>
    <vehicle id="truck830" type="truck_truck_E5" depart="31171.00">
        <route edges="75036032 619019400#1 619019400#2 619019400#3 619019400#4 619019400#5 619019400#6 619019400#7 619019400#8 320898734#0 320898734#1 284929204#0"/>
    </vehicle>
    <vehicle id="truck922" type="truck_truck_E6" depart="31171.00">
        <route edges="75036013#1 75036013#2 428046226#3 75036027#2 413976459#1 413976459#2 413976459#3 618055289#1 618055289#2 618055289#3"/>
    </vehicle>
    <vehicle id="truck948" type="truck_truck_E6" depart="31171.00">
        <route edges="391958207#5 -428035708 618055289#2 428030875#5 75223332 651186341#0 651186341#1 651186341#2 442469224#1 442867200#1 442867200#2 172098498#2 410089534#0 410089534#3"/>
    </vehicle>
    <vehicle id="truck966" type="truck_truck_E5" depart="31171.00">
        <route edges="-617934930 75036020 75036010#2 320898743#1 320898743#2"/>
    </vehicle>
    <vehicle id="truck974" type="truck_truck_E5" depart="31171.00">
        <route edges="618055292#0 618055292#1 428046226#0 428046226#1 428046226#2 -75036013#2 -75036013#1 -75036013#0 435491726#22 319788732#1 319788732#2 75037344#1 627176989"/>
    </vehicle>
    <vehicle id="truck994" type="truck_truck_E6" depart="31171.00">
        <route edges="279864789 279864811#0 75036010#0 75036010#1 75036010#2 320898743#1 320898743#2 428032853#0 428032853#1 413976459#2 618055291#1 618055291#2 618055291#3"/>
    </vehicle>
    <vehicle id="truck1000" type="truck_truck_E5" depart="31171.00">
        <route edges="151316320#1 151316320#2 430072721#7 430072721#8 618118685#1 618118686#2 412307193#0 412307193#1 442469224#1 430072204#0 430072204#1 430072204#2"/>
    </vehicle>
    <vehicle id="truck1003" type="truck_truck_E2" depart="31171.00">
        <route edges="618118685#1 618118686#2 435491726#13 435491726#15 435491726#18 435491726#20 435491726#21 435491726#22 319788732#1 319788732#2 75037344#1 627176989 627176990#0 627176990#1"/>
    </vehicle>
    <vehicle id="truck1006" type="truck_truck_E5" depart="31171.00">
        <route edges="75036013#2 -75036013#2 -75036013#1 -428073531#0 442334036#1 435707014#4 435707014#5 618118083#1 618118082#2 412307193#0 412307193#1 442469223#1 435343301#1 144953677#0 144953677#1 144953677#2 370644951#5 430072721#0 430072721#3 430072721#4 430072721#5"/>
    </vehicle>
    <vehicle id="truck1023" type="truck_truck_E6" depart="31171.00">
        <route edges="391958207#9 618055290 428046226#0 442334036#0 442334036#1 435707014#4 435707014#5 75223312#1 618055292#0"/>
    </vehicle>
    <vehicle id="truck1030" type="truck_truck_E6" depart="31171.00">
        <route edges="410089534#9 331470728#6 331470728#8 331470728#9 428030874#0 428030874#1 120863177#4 410089531#1 410089531#2 435491726#1 435491726#5 435491726#9 442317099#1"/>
    </vehicle>
    <vehicle id="truck1034" type="truck_truck_E5" depart="31171.00">
        <route edges="126587263#0 370644951#2 370644951#5 370644951#6 370644951#7 370644951#9 370644951#10 401506730#5 401506730#6 151316320#6 75223322#2"/>
    </vehicle>
    <vehicle id="truck1065" type="truck_truck_E5" depart="31171.00">
        <route edges="627176990#0 627176990#1 -428073531#1 -428073531#0 442334036#1 435707014#4 435707014#5 618118083#1 618118082#2 412307193#0 412307193#1 442469224#1 442867200#1 442867200#2 442867200#7 172243635 111948492 618315978#1 618315978#2 298431255#1 298431255#2 298431255#3 129897442#1 129897442#2"/>
    </vehicle>
    <vehicle id="truck1084" type="truck_truck_E6" depart="31171.00">
        <route edges="111925884#0 111925884#1 412296575#1 412296575#2 172098498#2 410089534#0 410089534#3 410089534#4 410089534#6 410089534#7 410089534#8 410089534#9 129897418 299781215 319662804#8 355775773 279864770#0 279864770#1 279864770#2 279864770#3 279864770#4 -479823503 35557265#0 75036007#0 75036007#1"/>
    </vehicle>
    <vehicle id="truck1097" type="truck_truck_E4" depart="31171.00">
        <route edges="370644951#10 401506730#5 401506730#6 401506730#7 401506730#8 618118083#1 618118082#2 412307193#0 412307193#1 442469224#1 442867200#1 517107201#0"/>
    </vehicle>
    <vehicle id="truck1110" type="truck_truck_E4" depart="31171.00">
        <route edges="129897427 -129897427"/>
    </vehicle>
    <vehicle id="truck1139" type="truck_truck_E6" depart="31171.00">
        <route edges="401506730#1 401506730#2 401506730#3 401506730#4 401506730#5 401506730#6 401506730#7 401506730#8 618118083#1 618118082#2 412307193#0 412307193#1"/>
    </vehicle>
    <vehicle id="truck1143" type="truck_truck_E5" depart="31171.00">
        <route edges="413976459#2 618055291#1 618055291#2 618055291#3 618055291#4 619019400#8 320898734#0 320898734#1 284929204#0 284929204#1 284929204#2 331470728#6 331470728#8 331470728#9 428030874#0 44364645#4 410089534#7"/>
    </vehicle>
    <vehicle id="truck1181" type="truck_truck_E3" depart="31171.00">
        <route edges="430077169#0 430077169#1 430077169#2 435343301#1 151316320#1 151316320#2 151316320#3 151316320#5 151316320#6 151316320#7 28707264#1 24252788#0"/>
    </vehicle>