<?xml version="1.0" encoding="UTF-8"?>

<!-- generated on Tue Jul 30 14:35:24 2019 by Eclipse SUMO polyconvert Version v1_2_0+0622-cbc8645
<configuration xmlns:xsi="http://www.w3.org/2001/XMLSchema-instance" xsi:noNamespaceSchemaLocation="http://sumo.dlr.de/xsd/polyconvertConfiguration.xsd">

    <input>
        <net-file value="osm.net.xml"/>
        <osm-files value="osm_bbox.osm.xml"/>
        <osm.keep-full-type value="true"/>
        <type-file value="/usr/bin/sumo/data/typemap/osmPolyconvert.typ.xml"/>
    </input>

    <output>
        <output-file value="osm.poly.xml"/>
    </output>

    <processing>
        <poi-layer-offset value="5"/>
    </processing>

    <report>
        <verbose value="true"/>
    </report>

</configuration>
-->

<additional xmlns:xsi="http://www.w3.org/2001/XMLSchema-instance" xsi:noNamespaceSchemaLocation="http://sumo.dlr.de/xsd/additional_file.xsd">
    <location netOffset="-277017.22,1337642.66" convBoundary="0.00,-0.00,2813.24,3139.21" origBoundary="-77.048608,-12.092807,-77.022812,-12.064437" projParameter="+proj=utm +zone=18 +ellps=WGS84 +datum=WGS84 +units=m +no_defs"/>

    <poly id="143545304" type="population.20592" color="51,128,255" fill="0" layer="-1.00" shape="2.080972,850.482888 3.282804,842.680007 112.986352,128.194502 235.150109,145.961144 239.819826,118.554954 594.723916,167.626843 608.618981,173.395934 596.089985,255.857930 1622.643540,405.705943 1653.697001,233.269328 2029.874427,183.252009 2006.918032,104.355041 2813.237404,233.007376"/>
    <poly id="143546458" type="population.17244" color="51,128,255" fill="0" layer="-1.00" shape="1336.588810,1434.870230 2231.012952,1567.496309"/>
    <poly id="143547914" type="population.83349" color="51,128,255" fill="0" layer="-1.00" shape="303.250595,3042.381608 940.310999,3128.314474 962.347949,3128.976438 1006.397659,3111.600447 1197.272504,3139.210978 1128.144365,2780.127759 1336.588810,1434.870230"/>
    <poly id="143550138" type="population.17244" color="51,128,255" fill="0" layer="-1.00" shape="2.080972,850.482888 250.754866,1072.990725 538.827381,1059.796829 729.426502,1089.004004 733.281904,1221.723514 746.227781,1341.642311 1093.800567,1391.569275 1336.588810,1434.870230"/>
    <poly id="151181509" type="leisure.park" color="207,245,201" fill="1" layer="-2.00" shape="699.989590,1436.610665 696.228573,1412.350384 691.511158,1386.378964 689.383091,1375.320273 709.793496,1363.212635 720.974245,1357.763598 731.300198,1353.038465 737.154429,1432.439867 699.989590,1436.610665"/>
    <poly id="281485403" type="leisure.park" color="207,245,201" fill="1" layer="-2.00" shape="456.748958,544.563466 505.543372,549.033285 597.204314,533.740409 661.832481,511.871969 668.999863,533.446821 674.705414,537.882215 728.347947,546.404447 1088.177049,603.041420 1120.135949,414.744477 1046.282926,410.642050 1000.467744,415.567302 979.078029,395.557290 907.532359,387.233849 667.663235,352.292580 619.020454,347.979017 618.041646,352.187451 577.015703,344.257158 483.167356,350.703687 456.748958,544.563466"/>
    <poly id="289467708" type="building.yes" color="255,230,230" fill="1" layer="-1.00" shape="1372.610994,1240.296488 1432.686305,1249.385112 1435.982316,1227.899478 1448.046221,1149.074402 1427.183124,1145.987004 1414.881607,1144.036582 1403.874142,1142.328147 1387.917249,1139.907921 1385.101505,1158.310023 1384.276011,1163.880588 1383.186817,1171.230640 1382.018684,1178.945246 1377.669645,1207.305411 1372.610994,1240.296488"/>
    <poly id="289467708#1" type="shop.mall" color="237,199,255" fill="1" layer="-1.00" shape="1372.610994,1240.296488 1432.686305,1249.385112 1435.982316,1227.899478 1448.046221,1149.074402 1427.183124,1145.987004 1414.881607,1144.036582 1403.874142,1142.328147 1387.917249,1139.907921 1385.101505,1158.310023 1384.276011,1163.880588 1383.186817,1171.230640 1382.018684,1178.945246 1377.669645,1207.305411 1372.610994,1240.296488"/>
    <poly id="289487215" type="leisure.park" color="207,245,201" fill="1" layer="-2.00" shape="1613.542588,523.977228 1616.028851,529.362188 1621.026940,530.837791 1626.618501,530.115895 1629.296945,525.765182 1631.502228,500.111046 1637.926636,492.822800 1643.157940,465.863379 1639.543538,455.501898 1643.767901,424.839319 1641.125530,421.411684 1636.928200,420.616994 1632.351193,421.091941 1628.697882,424.749380 1613.542588,523.977228"/>
    <poly id="289487250" type="building.yes" color="255,230,230" fill="1" layer="-1.00" shape="1468.833341,696.896193 1468.487991,699.405355 1484.000672,701.490326 1494.422201,702.895648 1504.375926,704.242162 1503.443152,711.062261 1525.548075,714.048247 1533.459897,656.127070 1475.467148,648.304275 1468.833341,696.896193"/>
    <poly id="289487250#1" type="shop.supermarket" color="237,199,255" fill="1" layer="-1.00" shape="1468.833341,696.896193 1468.487991,699.405355 1484.000672,701.490326 1494.422201,702.895648 1504.375926,704.242162 1503.443152,711.062261 1525.548075,714.048247 1533.459897,656.127070 1475.467148,648.304275 1468.833341,696.896193"/>
    <poly id="317281998" type="building.commercial" color="255,230,230" fill="1" layer="-1.00" shape="1446.141776,763.968719 1443.803328,763.597242 1448.394253,734.917998 1450.841422,735.312414 1455.238423,707.815672 1468.355586,709.882825 1459.732922,763.804290 1459.367688,766.058811 1446.141776,763.968719"/>
    <poly id="317282921" type="building.yes" color="255,230,230" fill="1" layer="-1.00" shape="1459.732922,763.804290 1460.772700,757.239479 1468.355586,709.882825 1492.644536,713.504720 1490.574072,726.877837 1507.063544,729.401591 1500.760948,770.073509 1459.732922,763.804290"/>
    <poly id="317282921#1" type="leisure.yes" color="207,245,201" fill="1" layer="-2.00" shape="1459.732922,763.804290 1460.772700,757.239479 1468.355586,709.882825 1492.644536,713.504720 1490.574072,726.877837 1507.063544,729.401591 1500.760948,770.073509 1459.732922,763.804290"/>
    <poly id="317283285" type="amenity.fast_food" color="237,199,199" fill="1" layer="-1.00" shape="1492.116546,725.926667 1493.939225,713.658196 1508.068961,715.743929 1506.235400,728.012319 1492.116546,725.926667"/>
    <poly id="317283285#1" type="building.yes" color="255,230,230" fill="1" layer="-1.00" shape="1492.116546,725.926667 1493.939225,713.658196 1508.068961,715.743929 1506.235400,728.012319 1492.116546,725.926667"/>
    <poly id="329351987" type="building.apartments" color="255,230,230" fill="1" layer="-1.00" shape="1665.633430,325.263037 1679.225457,326.415270 1678.642225,333.094123 1665.061084,331.941972 1665.633430,325.263037"/>
    <poly id="374511537" type="building.commercial" color="255,230,230" fill="1" layer="-1.00" shape="1529.445211,453.665005 1567.375460,459.114485 1573.476801,414.745400 1536.726863,408.729326 1529.445211,453.665005"/>
    <poly id="377622806" type="natural.water" color="181,209,209" fill="1" layer="-4.00" shape="904.470459,549.511432 895.421541,546.578104 890.137402,542.577434 885.756549,535.728750 884.705991,529.126212 885.202215,520.997188 888.341653,516.174171 893.023901,511.816327 895.023137,510.946049 896.760856,514.477663 897.397165,518.222357 899.561007,525.939694 905.069521,529.056842 910.370084,530.855710 915.014609,531.554255 918.564911,530.042715 925.843334,533.836958 932.222365,538.498620 941.698076,544.068572 948.523548,548.733559 955.806848,551.874999 959.990249,554.539654 957.530873,558.703854 951.300782,563.271461 939.125548,563.401945 927.634250,560.893008 926.756150,558.905835 925.236198,555.375849 923.932371,552.068774 918.623549,551.376340 911.775134,549.787225 904.470459,549.511432"/>
    <poly id="39413837" type="amenity.hospital" color="237,199,199" fill="1" layer="-1.00" shape="719.413140,1775.729898 1054.404129,1746.492726 1134.047781,1738.244982 1137.403597,1736.543843 1141.598849,1692.304384 1157.590221,1574.593250 1177.029983,1473.449833 1069.152897,1463.794460 1073.534545,1417.940902 993.017432,1426.602300 708.607735,1471.042669 715.058403,1652.954090 719.413140,1775.729898"/>
    <poly id="396430313" type="amenity.kindergarten" color="237,199,199" fill="1" layer="-1.00" shape="1073.534545,1417.940902 1118.066962,1412.917206 1150.517346,1418.857316 1186.719506,1425.489218 1177.029983,1473.449833 1069.152897,1463.794460 1073.534545,1417.940902"/>
    <poly id="396430316" type="amenity.parking" color="184,184,179" fill="1" layer="-1.00" shape="820.528948,1507.916054 917.674986,1496.325121 911.479478,1445.103661 814.333516,1456.705611 820.528948,1507.916054"/>
    <poly id="396436036" type="building.yes" color="255,230,230" fill="1" layer="-1.00" shape="822.288999,1342.010550 847.265400,1346.976877 850.215101,1338.401425 822.381674,1329.585323 822.288999,1342.010550"/>
    <poly id="396436037" type="building.yes" color="255,230,230" fill="1" layer="-1.00" shape="803.391175,1165.959290 820.694107,1168.954187 822.767462,1147.935217 799.782796,1134.375180 799.711476,1143.934750 813.138252,1149.777618 803.391175,1165.959290"/>
    <poly id="396436038" type="building.yes" color="255,230,230" fill="1" layer="-1.00" shape="901.684857,1358.115651 934.492863,1362.819409 936.122821,1351.600662 903.314909,1346.885840 901.684857,1358.115651"/>
    <poly id="396436040" type="building.yes" color="255,230,230" fill="1" layer="-1.00" shape="903.894174,1329.075628 938.057086,1334.619359 944.239357,1297.044706 910.076489,1291.500976 903.894174,1329.075628"/>
    <poly id="396436042" type="amenity.clinic" color="237,199,199" fill="1" layer="-1.00" shape="768.433053,1430.504491 787.429986,1428.322564 795.157042,1367.622659 756.255977,1359.310378 760.210158,1416.069799 767.084360,1415.689549 768.433053,1430.504491"/>
    <poly id="396436042#1" type="building.yes" color="255,230,230" fill="1" layer="-1.00" shape="768.433053,1430.504491 787.429986,1428.322564 795.157042,1367.622659 756.255977,1359.310378 760.210158,1416.069799 767.084360,1415.689549 768.433053,1430.504491"/>
    <poly id="397696559" type="building.yes" color="255,230,230" fill="1" layer="-1.00" shape="1262.246928,824.740312 1275.802004,826.500987 1277.460700,814.330876 1263.588207,812.789136 1262.246928,824.740312"/>
    <poly id="397696560" type="building.yes" color="255,230,230" fill="1" layer="-1.00" shape="1275.802004,826.500987 1280.155944,798.959662 1290.923891,800.644253 1286.570044,828.174514 1275.802004,826.500987"/>
    <poly id="397696561" type="building.yes" color="255,230,230" fill="1" layer="-1.00" shape="1519.842705,598.322361 1523.947106,569.163710 1570.157127,575.571012 1566.063578,604.740808 1519.842705,598.322361"/>
    <poly id="400482652" type="building.yes" color="255,230,230" fill="1" layer="-1.00" shape="1468.435289,621.607685 1496.147110,626.195575 1498.814758,610.127067 1471.157315,605.550647 1468.435289,621.607685"/>
    <poly id="400482652#1" type="tourism.hotel" color="207,245,201" fill="1" layer="-2.00" shape="1468.435289,621.607685 1496.147110,626.195575 1498.814758,610.127067 1471.157315,605.550647 1468.435289,621.607685"/>
    <poly id="400482654" type="shop.mall" color="237,199,255" fill="1" layer="-1.00" shape="1441.668988,765.064056 1545.544147,778.030331 1561.302481,678.275844 1565.122846,659.482882 1462.428271,644.500515 1441.668988,765.064056"/>
    <poly id="400482656" type="amenity.parking" color="184,184,179" fill="1" layer="-1.00" shape="1504.814727,766.751003 1540.609954,772.350538 1548.356674,723.446020 1512.572478,717.835501 1504.814727,766.751003"/>
    <poly id="400482657" type="amenity.restaurant" color="237,199,199" fill="1" layer="-1.00" shape="1538.435623,675.251019 1548.998777,676.646312 1561.302481,678.275844 1563.515730,661.805621 1540.637996,658.780714 1538.435623,675.251019"/>
    <poly id="400482657#1" type="building.yes" color="255,230,230" fill="1" layer="-1.00" shape="1538.435623,675.251019 1548.998777,676.646312 1561.302481,678.275844 1563.515730,661.805621 1540.637996,658.780714 1538.435623,675.251019"/>
    <poly id="400483190" type="building.yes" color="255,230,230" fill="1" layer="-1.00" shape="1353.387336,747.721139 1387.741685,753.785931 1392.541648,727.752754 1385.808101,726.817444 1385.269711,728.926832 1382.072372,728.371918 1382.622886,726.096647 1371.462889,724.420231 1370.389632,726.702677 1366.137320,725.973935 1365.982784,723.328273 1355.883297,722.544938 1351.798467,746.127030 1353.387336,747.721139"/>
    <poly id="400483191" type="building.apartments" color="255,230,230" fill="1" layer="-1.00" shape="1387.787364,725.703556 1426.748204,731.725139 1429.199763,715.433725 1390.161076,709.632860 1387.787364,725.703556"/>
    <poly id="400483192" type="building.apartments" color="255,230,230" fill="1" layer="-1.00" shape="1399.051009,678.341103 1434.550651,684.137756 1437.462496,667.451431 1401.784702,662.184567 1399.051009,678.341103"/>
    <poly id="400483193" type="building.house" color="255,230,230" fill="1" layer="-1.00" shape="1364.693372,658.102145 1401.784702,662.184567 1402.426652,656.402403 1365.335330,652.319981 1364.693372,658.102145"/>
    <poly id="400483194" type="building.apartments" color="255,230,230" fill="1" layer="-1.00" shape="1401.784702,662.184567 1437.462496,667.451431 1441.958231,638.395273 1406.162673,632.861975 1402.426652,656.402403 1401.784702,662.184567"/>
    <poly id="400483195" type="building.yes" color="255,230,230" fill="1" layer="-1.00" shape="1367.107787,643.879590 1371.177614,644.252899 1374.123101,630.366245 1369.157848,630.329282 1367.107787,643.879590"/>
    <poly id="400483196" type="building.yes" color="255,230,230" fill="1" layer="-1.00" shape="1383.054571,644.695388 1387.655228,645.437787 1390.234873,632.422537 1384.567125,631.672194 1383.054571,644.695388"/>
    <poly id="400483197" type="building.yes" color="255,230,230" fill="1" layer="-1.00" shape="1389.942635,648.276363 1394.898750,649.541458 1397.478392,636.526207 1390.568011,635.943655 1390.183729,639.293459 1393.387647,638.963231 1392.532350,642.685736 1390.064565,642.136251 1389.073232,645.116395 1390.471453,645.989865 1389.942635,648.276363"/>
    <poly id="400483198" type="building.yes" color="255,230,230" fill="1" layer="-1.00" shape="1263.515857,734.769936 1283.727643,737.542834 1287.179567,712.683565 1277.062835,711.291504 1266.978688,709.910747 1263.515857,734.769936"/>
    <poly id="400483199" type="building.yes" color="255,230,230" fill="1" layer="-1.00" shape="1294.823785,711.235661 1315.821948,715.154081 1315.843532,712.255236 1319.933334,712.872127 1325.374063,687.076085 1319.247988,686.455098 1321.336096,680.960323 1317.248440,680.055760 1318.482750,672.230998 1326.928219,674.318757 1327.840440,670.264729 1309.760572,666.356978 1305.843663,682.006783 1299.432325,680.210787 1297.341988,686.004297 1294.136319,685.106299 1297.158326,672.647588 1291.907718,671.446674 1287.681725,689.119054 1280.682407,688.779244 1277.062835,711.291504 1294.823785,711.235661"/>
    <poly id="400483200" type="building.yes" color="255,230,230" fill="1" layer="-1.00" shape="1380.223937,802.614703 1384.078560,776.308932 1419.507042,781.441160 1415.652450,807.746931 1380.223937,802.614703"/>
    <poly id="400483201" type="building.yes" color="255,230,230" fill="1" layer="-1.00" shape="1388.066624,875.457980 1408.243945,878.485012 1409.277105,869.884210 1390.065086,865.912781 1388.066624,875.457980"/>
    <poly id="401494435" type="building.yes" color="255,230,230" fill="1" layer="-1.00" shape="1720.445524,280.404144 1722.595455,281.227864 1723.756820,277.341660 1725.553433,277.355017 1725.684188,281.737682 1727.645364,281.586289 1729.393148,266.196967 1724.000843,266.488825 1720.445524,280.404144"/>
    <poly id="401494436" type="building.yes" color="255,230,230" fill="1" layer="-1.00" shape="1671.685100,409.102408 1678.472439,410.115519 1682.342986,384.562286 1675.566542,383.549256 1671.685100,409.102408"/>
    <poly id="401494437" type="building.yes" color="255,230,230" fill="1" layer="-1.00" shape="1689.420655,380.211086 1696.928392,382.457752 1702.421848,358.310760 1695.344262,358.258140 1689.420655,380.211086"/>
    <poly id="401494438" type="building.yes" color="255,230,230" fill="1" layer="-1.00" shape="1745.797261,419.335142 1753.304929,421.592855 1759.533280,417.235326 1752.905404,416.743469 1756.489926,410.618039 1748.522753,410.116226 1745.797261,419.335142"/>
    <poly id="401494440" type="building.yes" color="255,230,230" fill="1" layer="-1.00" shape="1753.316041,395.192137 1779.716124,398.962306 1779.915634,394.095243 1754.655158,390.831463 1753.316041,395.192137"/>
    <poly id="401494441" type="building.yes" color="255,230,230" fill="1" layer="-1.00" shape="1750.092800,389.336987 1751.274673,384.156344 1783.221931,388.775479 1782.383660,391.679312 1750.092800,389.336987"/>
    <poly id="401494442" type="building.yes" color="255,230,230" fill="1" layer="-1.00" shape="1757.879427,351.132512 1756.307572,342.855364 1777.662623,345.603269 1776.467549,354.025824 1757.879427,351.132512"/>
    <poly id="401494445" type="building.yes" color="255,230,230" fill="1" layer="-1.00" shape="1639.190294,526.436253 1652.893828,530.178495 1655.064638,522.338568 1641.361107,518.596327 1639.190294,526.436253"/>
    <poly id="401494448" type="building.yes" color="255,230,230" fill="1" layer="-1.00" shape="1712.095515,660.996107 1723.372266,661.611035 1726.931023,653.095398 1712.980720,650.314012 1712.095515,660.996107"/>
    <poly id="401494449" type="building.yes" color="255,230,230" fill="1" layer="-1.00" shape="1728.189007,664.047912 1743.777603,664.705943 1749.837020,644.989102 1733.185289,643.792058 1728.189007,664.047912"/>
    <poly id="401494450" type="amenity.marketplace" color="237,199,199" fill="1" layer="-1.00" shape="1707.004252,730.655942 1703.550663,725.020380 1708.677030,685.800288 1713.805629,682.906214 1780.118714,693.545500 1771.428809,740.473458 1707.004252,730.655942"/>
    <poly id="401494450#1" type="building.yes" color="255,230,230" fill="1" layer="-1.00" shape="1707.004252,730.655942 1703.550663,725.020380 1708.677030,685.800288 1713.805629,682.906214 1780.118714,693.545500 1771.428809,740.473458 1707.004252,730.655942"/>
    <poly id="401494457" type="building.yes" color="255,230,230" fill="1" layer="-1.00" shape="1530.246937,1108.623958 1552.807026,1111.945203 1551.731365,1096.977478 1532.336988,1094.078107 1530.246937,1108.623958"/>
    <poly id="401494458" type="building.commercial" color="255,230,230" fill="1" layer="-1.00" shape="1531.906449,1089.007187 1576.688961,1095.658216 1579.633000,1076.095258 1560.509789,1073.341763 1536.601157,1069.789193 1534.861407,1069.444310 1531.906449,1089.007187"/>
    <poly id="401494462" type="building.yes" color="255,230,230" fill="1" layer="-1.00" shape="1710.779177,1289.493489 1730.188311,1290.423281 1733.006702,1283.362698 1713.623092,1280.463549 1710.779177,1289.493489"/>
    <poly id="418199435" type="landuse.grass" color="194,194,130" fill="1" layer="-3.00" shape="1497.108401,463.338549 1498.582997,458.337124 1571.198945,469.178781 1578.556901,466.677523 1586.303365,463.183312 1592.669768,459.302630 1589.284493,488.411303 1586.546592,484.651006 1581.237768,478.105365 1571.372168,473.705610 1497.108401,463.338549"/>
    <poly id="418199436" type="landuse.grass" color="194,194,130" fill="1" layer="-3.00" shape="1607.450980,444.054501 1610.849224,439.554236 1618.831771,432.133740 1606.124697,515.501683 1595.932402,500.853423 1607.450980,444.054501"/>
    <poly id="418199437" type="landuse.grass" color="194,194,130" fill="1" layer="-3.00" shape="1594.825835,516.402425 1603.459166,526.900823 1585.758660,640.372386 1582.639278,643.978471 1577.308831,643.263869 1575.195520,638.977105 1590.947046,532.804936 1594.825835,516.402425"/>
    <poly id="418199438" type="building.yes" color="255,230,230" fill="1" layer="-1.00" shape="1606.299898,594.439891 1607.711943,584.669032 1612.443748,585.345983 1613.557051,577.675231 1643.764475,581.993858 1641.239147,599.435470 1606.299898,594.439891"/>
    <poly id="418199439" type="landuse.grass" color="194,194,130" fill="1" layer="-3.00" shape="1572.692996,660.667804 1574.909221,658.438114 1580.914441,659.201994 1582.113324,661.988197 1565.700443,780.946460 1563.181986,784.280391 1556.220668,783.221715 1554.464206,779.269551 1572.692996,660.667804"/>
    <poly id="418201172" type="building.yes" color="255,230,230" fill="1" layer="-1.00" shape="1324.288863,354.622924 1327.524853,325.125853 1344.714277,328.672921 1339.757903,358.157180 1324.288863,354.622924"/>
    <poly id="418201175" type="building.yes" color="255,230,230" fill="1" layer="-1.00" shape="1137.191965,383.602148 1164.738325,385.522515 1170.974709,358.183324 1142.145329,354.549398 1137.191965,383.602148"/>
    <poly id="418201176" type="building.yes" color="255,230,230" fill="1" layer="-1.00" shape="1122.709912,478.475465 1142.490928,482.041955 1143.418091,473.064152 1123.191968,470.777875 1122.709912,478.475465"/>
    <poly id="418201762" type="building.yes" color="255,230,230" fill="1" layer="-1.00" shape="1619.248888,717.234701 1626.383916,718.361046 1630.038597,695.483908 1622.903575,694.357563 1619.248888,717.234701"/>
    <poly id="421696059" type="building.yes" color="255,230,230" fill="1" layer="-1.00" shape="897.884781,371.139841 898.025791,352.241986 911.471511,355.495818 911.342315,372.811473 897.884781,371.139841"/>
    <poly id="421696060" type="building.yes" color="255,230,230" fill="1" layer="-1.00" shape="1053.660182,374.890965 1058.561416,342.617933 1074.354874,344.992936 1069.464628,377.254984 1053.660182,374.890965"/>
    <poly id="421696061" type="building.yes" color="255,230,230" fill="1" layer="-1.00" shape="857.512264,366.113841 860.857153,342.515165 867.989212,342.568391 864.720706,355.932571 874.208906,358.360209 874.126586,369.391336 857.512264,366.113841"/>
    <poly id="421696063" type="landuse.grass" color="194,194,130" fill="1" layer="-3.00" shape="871.588415,448.320705 869.303731,442.206878 962.121618,410.401661 1009.234139,399.433628 1056.253474,399.496561 1114.072273,401.377115 1114.044149,405.150043 1021.747663,405.037281 976.685429,415.589094 931.612496,429.028712 871.588415,448.320705"/>
    <poly id="421696064" type="landuse.grass" color="194,194,130" fill="1" layer="-3.00" shape="850.251044,450.485113 851.960855,456.295899 666.265566,526.300574 664.261788,520.487576 850.251044,450.485113"/>
    <poly id="421696065" type="leisure.pitch" color="207,245,201" fill="1" layer="-2.00" shape="775.383117,544.387692 795.354880,539.911625 786.435891,500.608776 766.453262,505.084752 775.383117,544.387692"/>
    <poly id="421696066" type="building.yes" color="255,230,230" fill="1" layer="-1.00" shape="763.199554,350.184473 764.120459,343.519188 786.880010,346.300435 783.903371,354.112191 763.199554,350.184473"/>
    <poly id="421698628" type="building.yes" color="255,230,230" fill="1" layer="-1.00" shape="940.274171,377.309453 942.353950,367.100973 956.293052,369.904800 958.305017,360.027762 973.820658,363.153160 969.728928,383.238680 940.274171,377.309453"/>
    <poly id="421698630" type="building.yes" color="255,230,230" fill="1" layer="-1.00" shape="1111.654974,277.199626 1110.680522,263.305886 1132.169578,265.601611 1130.996016,278.417104 1111.654974,277.199626"/>
    <poly id="421698633" type="building.yes" color="255,230,230" fill="1" layer="-1.00" shape="1247.913567,313.467931 1252.341921,296.405635 1265.236915,297.574998 1262.953707,314.642211 1247.913567,313.467931"/>
    <poly id="421698638" type="building.yes" color="255,230,230" fill="1" layer="-1.00" shape="1336.080704,310.915842 1338.340057,297.046211 1365.173312,302.590382 1366.171778,313.275450 1336.080704,310.915842"/>
    <poly id="435537371" type="building.apartments" color="255,230,230" fill="1" layer="-1.00" shape="1469.691249,1495.079608 1473.819478,1468.576702 1487.024344,1470.611246 1482.885238,1497.114071 1469.691249,1495.079608"/>
    <poly id="435537373" type="building.yes" color="255,230,230" fill="1" layer="-1.00" shape="1498.741080,1450.172999 1504.108483,1419.574235 1517.822559,1421.955566 1512.466142,1452.543347 1498.741080,1450.172999"/>
    <poly id="435537373#1" type="tourism.hotel" color="207,245,201" fill="1" layer="-2.00" shape="1498.741080,1450.172999 1504.108483,1419.574235 1517.822559,1421.955566 1512.466142,1452.543347 1498.741080,1450.172999"/>
    <poly id="435541875" type="building.commercial" color="255,230,230" fill="1" layer="-1.00" shape="1490.953116,1362.558633 1493.214362,1348.423456 1519.557911,1352.591630 1517.296761,1366.715744 1490.953116,1362.558633"/>
    <poly id="435541877" type="amenity.college" color="237,199,199" fill="1" layer="-1.00" shape="1524.856660,1140.838023 1527.106426,1126.780215 1539.908247,1128.811764 1537.658570,1142.858508 1524.856660,1140.838023"/>
    <poly id="435541877#1" type="building.college" color="255,230,230" fill="1" layer="-1.00" shape="1524.856660,1140.838023 1527.106426,1126.780215 1539.908247,1128.811764 1537.658570,1142.858508 1524.856660,1140.838023"/>
    <poly id="435542284" type="building.yes" color="255,230,230" fill="1" layer="-1.00" shape="1536.601157,1069.789193 1539.636612,1049.651540 1563.534339,1053.204029 1560.509789,1073.341763 1536.601157,1069.789193"/>
    <poly id="435542284#1" type="shop.optician" color="237,199,255" fill="1" layer="-1.00" shape="1536.601157,1069.789193 1539.636612,1049.651540 1563.534339,1053.204029 1560.509789,1073.341763 1536.601157,1069.789193"/>
    <poly id="435542285" type="amenity.college" color="237,199,199" fill="1" layer="-1.00" shape="1545.543872,988.916040 1548.311162,969.694779 1595.108005,976.349725 1592.329775,995.581969 1545.543872,988.916040"/>
    <poly id="435542285#1" type="building.college" color="255,230,230" fill="1" layer="-1.00" shape="1545.543872,988.916040 1548.311162,969.694779 1595.108005,976.349725 1592.329775,995.581969 1545.543872,988.916040"/>
    <poly id="435542287" type="amenity.fast_food" color="237,199,199" fill="1" layer="-1.00" shape="1555.295543,936.906131 1557.645270,922.583510 1570.968759,924.740654 1568.619121,939.052210 1555.295543,936.906131"/>
    <poly id="435542287#1" type="building.yes" color="255,230,230" fill="1" layer="-1.00" shape="1555.295543,936.906131 1557.645270,922.583510 1570.968759,924.740654 1568.619121,939.052210 1555.295543,936.906131"/>
    <poly id="435544142" type="amenity.school" color="237,199,199" fill="1" layer="-1.00" shape="1567.232007,831.247765 1569.546237,815.840521 1578.757918,817.402783 1597.032376,820.050399 1594.610424,835.301933 1567.232007,831.247765"/>
    <poly id="435544142#1" type="building.school" color="255,230,230" fill="1" layer="-1.00" shape="1567.232007,831.247765 1569.546237,815.840521 1578.757918,817.402783 1597.032376,820.050399 1594.610424,835.301933 1567.232007,831.247765"/>
    <poly id="435544145" type="amenity.bank" color="237,199,199" fill="1" layer="-1.00" shape="1578.757918,817.402783 1580.570164,805.067845 1598.844696,807.704397 1597.032376,820.050399 1578.757918,817.402783"/>
    <poly id="435544145#1" type="building.yes" color="255,230,230" fill="1" layer="-1.00" shape="1578.757918,817.402783 1580.570164,805.067845 1598.844696,807.704397 1597.032376,820.050399 1578.757918,817.402783"/>
    <poly id="435544146" type="amenity.restaurant" color="237,199,199" fill="1" layer="-1.00" shape="1581.375639,764.111623 1578.507817,783.675147 1593.497140,785.855744 1596.365034,766.281156 1590.045416,765.326842 1581.375639,764.111623"/>
    <poly id="435544146#1" type="building.yes" color="255,230,230" fill="1" layer="-1.00" shape="1581.375639,764.111623 1578.507817,783.675147 1593.497140,785.855744 1596.365034,766.281156 1590.045416,765.326842 1581.375639,764.111623"/>
    <poly id="435544147" type="amenity.bar" color="237,199,199" fill="1" layer="-1.00" shape="1581.375639,764.111623 1577.318167,763.539270 1578.271712,756.852104 1590.998959,758.639677 1590.045416,765.326842 1581.375639,764.111623"/>
    <poly id="435544147#1" type="building.yes" color="255,230,230" fill="1" layer="-1.00" shape="1581.375639,764.111623 1577.318167,763.539270 1578.271712,756.852104 1590.998959,758.639677 1590.045416,765.326842 1581.375639,764.111623"/>
    <poly id="435544150" type="amenity.restaurant" color="237,199,199" fill="1" layer="-1.00" shape="1583.197097,741.751966 1584.783778,731.927081 1598.890510,734.178570 1597.303834,744.003456 1583.197097,741.751966"/>
    <poly id="435544150#1" type="building.yes" color="255,230,230" fill="1" layer="-1.00" shape="1583.197097,741.751966 1584.783778,731.927081 1598.890510,734.178570 1597.303834,744.003456 1583.197097,741.751966"/>
    <poly id="435544153" type="amenity.restaurant" color="237,199,199" fill="1" layer="-1.00" shape="1585.023161,709.987189 1587.393669,713.368544 1597.782123,714.828907 1599.837588,700.537293 1586.763162,698.581165 1585.023161,709.987189"/>
    <poly id="435544153#1" type="building.yes" color="255,230,230" fill="1" layer="-1.00" shape="1585.023161,709.987189 1587.393669,713.368544 1597.782123,714.828907 1599.837588,700.537293 1586.763162,698.581165 1585.023161,709.987189"/>
    <poly id="435544156" type="amenity.restaurant" color="237,199,199" fill="1" layer="-1.00" shape="1588.401132,687.716562 1590.371577,674.608259 1609.298774,677.327127 1607.393341,690.480172 1601.475553,689.672690 1588.401132,687.716562"/>
    <poly id="435544156#1" type="building.yes" color="255,230,230" fill="1" layer="-1.00" shape="1588.401132,687.716562 1590.371577,674.608259 1609.298774,677.327127 1607.393341,690.480172 1601.475553,689.672690 1588.401132,687.716562"/>
    <poly id="435544159" type="amenity.restaurant" color="237,199,199" fill="1" layer="-1.00" shape="1588.401132,687.716562 1586.763162,698.581165 1599.837588,700.537293 1601.475553,689.672690 1588.401132,687.716562"/>
    <poly id="435544159#1" type="building.yes" color="255,230,230" fill="1" layer="-1.00" shape="1588.401132,687.716562 1586.763162,698.581165 1599.837588,700.537293 1601.475553,689.672690 1588.401132,687.716562"/>