<?xml version="1.0" encoding="UTF-8"?>

<!-- generated on Thu Oct 10 16:40:28 2019 by Eclipse SUMO duarouter Version v1_2_0+0622-cbc8645
<configuration xmlns:xsi="http://www.w3.org/2001/XMLSchema-instance" xsi:noNamespaceSchemaLocation="http://sumo.dlr.de/xsd/duarouterConfiguration.xsd">

    <input>
        <net-file value="osm.net.xml"/>
        <route-files value="osm.motorcycle.trips.xml"/>
    </input>

    <output>
        <output-file value="osm.motorcycle.trips.xml.tmp"/>
        <write-trips value="true"/>
    </output>

    <time>
        <begin value="0"/>
        <end value="86400.0"/>
    </time>

    <report>
        <no-warnings value="true"/>
        <ignore-errors value="true"/>
        <no-step-log value="true"/>
    </report>

</configuration>
-->

<routes xmlns:xsi="http://www.w3.org/2001/XMLSchema-instance" xsi:noNamespaceSchemaLocation="http://sumo.dlr.de/xsd/routes_file.xsd">
    <vType id="moto_motorcycle" vClass="motorcycle"/>
    <trip id="moto0" type="moto_motorcycle" depart="0.00" departLane="best" from="324601502#0" to="-646591409"/>
    <trip id="moto1" type="moto_motorcycle" depart="57.09" departLane="best" from="24295246#2" to="24295136#14"/>
    <trip id="moto2" type="moto_motorcycle" depart="114.18" departLane="best" from="329505437#0" to="326569837#4"/>
    <trip id="moto3" type="moto_motorcycle" depart="171.27" departLane="best" departSpeed="max" from="435546424#0" to="118793923#1"/>
    <trip id="moto4" type="moto_motorcycle" depart="228.36" departLane="best" from="279653481#6" to="111895261"/>
    <trip id="moto5" type="moto_motorcycle" depart="285.45" departLane="best" from="24295136#16" to="293115460#8"/>
    <trip id="moto6" type="moto_motorcycle" depart="342.54" departLane="best" from="324601502#6" to="317137449#10"/>
    <trip id="moto7" type="moto_motorcycle" depart="399.63" departLane="best" from="24295136#17" to="320249068#5"/>
    <trip id="moto8" type="moto_motorcycle" depart="456.72" departLane="best" from="360771086#19" to="-133242880#1"/>
    <trip id="moto9" type="moto_motorcycle" depart="513.81" departLane="best" from="360771086#15" to="326569903#5"/>
    <trip id="moto10" type="moto_motorcycle" depart="570.90" departLane="best" from="24305286#10" to="156115617#0"/>
    <trip id="moto11" type="moto_motorcycle" depart="627.99" departLane="best" from="522768610#0" to="24305273#3"/>
    <trip id="moto12" type="moto_motorcycle" depart="685.08" departLane="best" from="118793923#0" to="118793923#5"/>
    <trip id="moto13" type="moto_motorcycle" depart="742.17" departLane="best" departSpeed="max" from="401494444#0" to="321544178"/>
    <trip id="moto14" type="moto_motorcycle" depart="799.26" departLane="best" from="360771086#18" to="329505240#3"/>
    <trip id="moto15" type="moto_motorcycle" depart="856.35" departLane="best" from="24305365#3" to="317137449#12"/>
    <trip id="moto16" type="moto_motorcycle" depart="913.44" departLane="best" from="360771086#7" to="321572180#0"/>
    <trip id="moto17" type="moto_motorcycle" depart="970.53" departLane="best" from="401494444#2" to="320249039#2"/>
    <trip id="moto18" type="moto_motorcycle" depart="1027.62" departLane="best" from="327607339#0" to="111940154#2"/>
    <trip id="moto19" type="moto_motorcycle" depart="1084.71" departLane="best" from="24295136#20" to="24295246#0"/>
    <trip id="moto20" type="moto_motorcycle" depart="1141.80" departLane="best" from="118793921#3" to="24295136#18"/>
    <trip id="moto21" type="moto_motorcycle" depart="1198.89" departLane="best" from="118793923#3" to="24295146#1"/>
    <trip id="moto22" type="moto_motorcycle" depart="1255.98" departLane="best" from="321572180#8" to="24305286#2"/>
    <trip id="moto23" type="moto_motorcycle" depart="1313.07" departLane="best" from="24305365#0" to="24295100#1"/>
    <trip id="moto24" type="moto_motorcycle" depart="1370.16" departLane="best" from="324601502#6" to="321544196#0"/>
    <trip id="moto25" type="moto_motorcycle" depart="1427.25" departLane="best" from="156115617#2" to="329505240#3"/>
    <trip id="moto26" type="moto_motorcycle" depart="1484.34" departLane="best" from="153125093#1" to="24305294#0"/>
    <trip id="moto27" type="moto_motorcycle" depart="1541.43" departLane="best" from="633508213#5" to="321572180#8"/>
    <trip id="moto28" type="moto_motorcycle" depart="1598.52" departLane="best" from="317137449#17" to="326569902#4"/>
    <trip id="moto29" type="moto_motorcycle" depart="1655.61" departLane="best" departSpeed="max" from="396425746" to="344084913#4"/>
    <trip id="moto30" type="moto_motorcycle" depart="1712.70" departLane="best" from="24295136#20" to="111896823#0"/>
    <trip id="moto31" type="moto_motorcycle" depart="1769.79" departLane="best" from="24305273#3" to="24295139#7"/>
    <trip id="moto32" type="moto_motorcycle" depart="1826.88" departLane="best" from="24295136#13" to="522768610#0"/>
    <trip id="moto33" type="moto_motorcycle" depart="1883.97" departLane="best" from="401494444#8" to="24295254#5"/>
    <trip id="moto34" type="moto_motorcycle" depart="1941.06" departLane="best" from="324924047#1" to="24305365#2"/>
    <trip id="moto35" type="moto_motorcycle" depart="1998.15" departLane="best" from="436277095#5" to="284927032#3"/>
    <trip id="moto36" type="moto_motorcycle" depart="2055.24" departLane="best" from="24295147#0" to="24295136#4"/>
    <trip id="moto37" type="moto_motorcycle" depart="2112.33" departLane="best" from="317137449#3" to="24295139#4"/>
    <trip id="moto38" type="moto_motorcycle" depart="2169.42" departLane="best" from="320249068#3" to="436277095#5"/>
    <trip id="moto39" type="moto_motorcycle" depart="2226.51" departLane="best" from="24305399#2" to="24295136#13"/>
    <trip id="moto40" type="moto_motorcycle" depart="2283.60" departLane="best" from="684284130" to="302109830#0"/>
    <trip id="moto41" type="moto_motorcycle" depart="2340.69" departLane="best" from="118793922#3" to="111940154#2"/>
    <trip id="moto42" type="moto_motorcycle" depart="2397.78" departLane="best" from="118793923#6" to="321572180#3"/>
    <trip id="moto43" type="moto_motorcycle" depart="2454.87" departLane="best" departSpeed="max" from="360771086#0" to="24305399#3"/>
    <trip id="moto44" type="moto_motorcycle" depart="2511.96" departLane="best" from="118793919#0" to="24305294#0"/>
    <trip id="moto45" type="moto_motorcycle" depart="2569.05" departLane="best" from="646591409" to="314360433#5"/>
    <trip id="moto46" type="moto_motorcycle" depart="2626.14" departLane="best" from="522768610#5" to="401494444#2"/>
    <trip id="moto47" type="moto_motorcycle" depart="2683.23" departLane="best" from="-24295097#0" to="329505240#0"/>
    <trip id="moto48" type="moto_motorcycle" depart="2740.32" departLane="best" from="326569902#4" to="314360433#9"/>
    <trip id="moto49" type="moto_motorcycle" depart="2797.41" departLane="best" from="24295147#1" to="321572180#8"/>
    <trip id="moto50" type="moto_motorcycle" depart="2854.50" departLane="best" from="118793923#7" to="279653481#5"/>
    <trip id="moto51" type="moto_motorcycle" depart="2911.59" departLane="best" from="293115460#0" to="522768610#4"/>
    <trip id="moto52" type="moto_motorcycle" depart="2968.68" departLane="best" from="401494444#8" to="24295139#4"/>
    <trip id="moto53" type="moto_motorcycle" depart="3025.77" departLane="best" departSpeed="max" from="314360433#0" to="156115617#9"/>
    <trip id="moto54" type="moto_motorcycle" depart="3082.86" departLane="best" from="436277095#4" to="401494444#6"/>
    <trip id="moto55" type="moto_motorcycle" depart="3139.95" departLane="best" from="24305223#1" to="321572180#8"/>
    <trip id="moto56" type="moto_motorcycle" depart="3197.04" departLane="best" from="321544196#3" to="153125093#1"/>
    <trip id="moto57" type="moto_motorcycle" depart="3254.13" departLane="best" from="344084913#2" to="314360433#9"/>
    <trip id="moto58" type="moto_motorcycle" depart="3311.22" departLane="best" from="344084913#9" to="314360433#6"/>
    <trip id="moto59" type="moto_motorcycle" depart="3368.31" departLane="best" from="-133242880#1" to="24305223#3"/>
    <trip id="moto60" type="moto_motorcycle" depart="3425.40" departLane="best" from="-344372307#0" to="496739504#2"/>
    <trip id="moto61" type="moto_motorcycle" depart="3482.49" departLane="best" departSpeed="max" from="435541876#0" to="360771086#6"/>
    <trip id="moto62" type="moto_motorcycle" depart="3539.58" departLane="best" from="24305225" to="118793919#0"/>
    <trip id="moto63" type="moto_motorcycle" depart="3596.67" departLane="best" departSpeed="max" from="435541876#0" to="522768610#2"/>
    <trip id="moto64" type="moto_motorcycle" depart="3653.76" departLane="best" from="118793921#5" to="293115460#17"/>
    <trip id="moto65" type="moto_motorcycle" depart="3710.85" departLane="best" from="118793920" to="344084913#0"/>
    <trip id="moto66" type="moto_motorcycle" depart="3767.94" departLane="best" from="344084913#3" to="152762229#0"/>
    <trip id="moto67" type="moto_motorcycle" depart="3825.03" departLane="best" from="293115460#6" to="317137449#12"/>
    <trip id="moto68" type="moto_motorcycle" depart="3882.12" departLane="best" from="24295147#0" to="401494444#6"/>
    <trip id="moto69" type="moto_motorcycle" depart="3939.21" departLane="best" from="279653481#7" to="24295136#1"/>
    <trip id="moto70" type="moto_motorcycle" depart="3996.30" departLane="best" departSpeed="max" from="317137449#0" to="329505240#3"/>
    <trip id="moto71" type="moto_motorcycle" depart="4053.39" departLane="best" from="24295136#1" to="24295254#4"/>
    <trip id="moto72" type="moto_motorcycle" depart="4110.48" departLane="best" from="646591409" to="324601502#4"/>
    <trip id="moto73" type="moto_motorcycle" depart="4167.57" departLane="best" departSpeed="max" from="133242880#0" to="24295136#15"/>
    <trip id="moto74" type="moto_motorcycle" depart="4224.66" departLane="best" from="24305286#1" to="320249068#5"/>
    <trip id="moto75" type="moto_motorcycle" depart="4281.75" departLane="best" from="24295136#4" to="24295136#13"/>
    <trip id="moto76" type="moto_motorcycle" depart="4338.84" departLane="best" from="118793921#0" to="321572180#5"/>
    <trip id="moto77" type="moto_motorcycle" depart="4395.93" departLane="best" from="24295136#20" to="436277095#8"/>
    <trip id="moto78" type="moto_motorcycle" depart="4453.02" departLane="best" from="401494444#14" to="118793921#2"/>
    <trip id="moto79" type="moto_motorcycle" depart="4510.11" departLane="best" from="24295136#9" to="324924047#2"/>
    <trip id="moto80" type="moto_motorcycle" depart="4567.20" departLane="best" from="24295136#15" to="152762229#1"/>
    <trip id="moto81" type="moto_motorcycle" depart="4624.29" departLane="best" from="496739503" to="317137449#9"/>
    <trip id="moto82" type="moto_motorcycle" depart="4681.38" departLane="best" from="293115460#5" to="344084913#9"/>
    <trip id="moto83" type="moto_motorcycle" depart="4738.47" departLane="best" from="360771086#18" to="24267146#0"/>
    <trip id="moto84" type="moto_motorcycle" depart="4795.56" departLane="best" from="118793923#2" to="279653481#3"/>
    <trip id="moto85" type="moto_motorcycle" depart="4852.65" departLane="best" from="279653481#7" to="293115457#2"/>
    <trip id="moto86" type="moto_motorcycle" depart="4909.74" departLane="best" from="329505240#4" to="326569837#1"/>
    <trip id="moto87" type="moto_motorcycle" depart="4966.83" departLane="best" from="633508213#0" to="118793923#5"/>
    <trip id="moto88" type="moto_motorcycle" depart="5023.92" departLane="best" from="24305399#4" to="24305273#4"/>
    <trip id="moto89" type="moto_motorcycle" depart="5081.01" departLane="best" from="401494444#2" to="24295136#5"/>
    <trip id="moto90" type="moto_motorcycle" depart="5138.10" departLane="best" from="24267146#0" to="284927029#0"/>
    <trip id="moto91" type="moto_motorcycle" depart="5195.19" departLane="best" from="279653481#6" to="24295146#1"/>
    <trip id="moto92" type="moto_motorcycle" depart="5252.28" departLane="best" from="24295139#4" to="496739503"/>
    <trip id="moto93" type="moto_motorcycle" depart="5309.37" departLane="best" from="293115457#0" to="401494444#2"/>
    <trip id="moto94" type="moto_motorcycle" depart="5366.46" departLane="best" from="317137449#12" to="118793918#0"/>
    <trip id="moto95" type="moto_motorcycle" depart="5423.55" departLane="best" from="684284130" to="360771086#8"/>
    <trip id="moto96" type="moto_motorcycle" depart="5480.64" departLane="best" from="522768610#5" to="496739504#1"/>
    <trip id="moto97" type="moto_motorcycle" depart="5537.73" departLane="best" from="401494444#1" to="156115617#4"/>
    <trip id="moto98" type="moto_motorcycle" depart="5594.82" departLane="best" from="302109830#0" to="24295136#11"/>
    <trip id="moto99" type="moto_motorcycle" depart="5651.91" departLane="best" from="24305399#3" to="118793919#3"/>
    <trip id="moto100" type="moto_motorcycle" depart="5709.00" departLane="best" from="24305365#4" to="633508215#0"/>
    <trip id="moto101" type="moto_motorcycle" depart="5766.09" departLane="best" from="24295147#0" to="344084913#9"/>
    <trip id="moto102" type="moto_motorcycle" depart="5823.18" departLane="best" from="293115460#10" to="24305399#4"/>
    <trip id="moto103" type="moto_motorcycle" depart="5880.27" departLane="best" from="522768610#0" to="646591409"/>
    <trip id="moto104" type="moto_motorcycle" depart="5937.36" departLane="best" from="317137449#14" to="329505082"/>
    <trip id="moto105" type="moto_motorcycle" depart="5994.45" departLane="best" from="152762229#8" to="24295246#3"/>
    <trip id="moto106" type="moto_motorcycle" depart="6051.54" departLane="best" from="522768610#5" to="320249068#0"/>
    <trip id="moto107" type="moto_motorcycle" depart="6108.63" departLane="best" from="317137449#1" to="329876536#1"/>
    <trip id="moto108" type="moto_motorcycle" depart="6165.72" departLane="best" from="118793918#0" to="320249068#3"/>
    <trip id="moto109" type="moto_motorcycle" depart="6222.81" departLane="best" from="152762229#9" to="522768610#7"/>
    <trip id="moto110" type="moto_motorcycle" depart="6279.90" departLane="best" from="118793921#3" to="172580997"/>
    <trip id="moto111" type="moto_motorcycle" depart="6336.99" departLane="best" from="321396548#0" to="326569837#4"/>
    <trip id="moto112" type="moto_motorcycle" depart="6394.08" departLane="best" from="24295136#8" to="151073587#1"/>
    <trip id="moto113" type="moto_motorcycle" depart="6451.17" departLane="best" from="435545285" to="24295136#4"/>
    <trip id="moto114" type="moto_motorcycle" depart="6508.26" departLane="best" from="321396548#0" to="321572180#0"/>
    <trip id="moto115" type="moto_motorcycle" depart="6565.35" departLane="best" from="279653481#5" to="320249068#3"/>
    <trip id="moto116" type="moto_motorcycle" depart="6622.44" departLane="best" from="314360433#8" to="496739504#4"/>
    <trip id="moto117" type="moto_motorcycle" depart="6679.53" departLane="best" from="24295136#9" to="24305365#2"/>
    <trip id="moto118" type="moto_motorcycle" depart="6736.62" departLane="best" from="326569837#4" to="24295246#4"/>
    <trip id="moto119" type="moto_motorcycle" depart="6793.71" departLane="best" from="24305273#4" to="329876536#3"/>
    <trip id="moto120" type="moto_motorcycle" depart="6850.80" departLane="best" from="118793921#0" to="284927032#3"/>
    <trip id="moto121" type="moto_motorcycle" depart="6907.89" departLane="best" from="684284130" to="646591409"/>
    <trip id="moto122" type="moto_motorcycle" depart="6964.98" departLane="best" from="118793921#1" to="24295136#1"/>
    <trip id="moto123" type="moto_motorcycle" depart="7022.07" departLane="best" from="24295147#0" to="496739504#3"/>
    <trip id="moto125" type="moto_motorcycle" depart="7136.25" departLane="best" from="24305365#0" to="156115617#0"/>
    <trip id="moto126" type="moto_motorcycle" depart="7193.34" departLane="best" from="369135366#0" to="327607339#1"/>
    <trip id="moto127" type="moto_motorcycle" depart="7250.43" departLane="best" from="321544196#4" to="633508215#0"/>
    <trip id="moto128" type="moto_motorcycle" depart="7307.52" departLane="best" from="324924047#0" to="-24267146#0"/>
    <trip id="moto129" type="moto_motorcycle" depart="7364.61" departLane="best" from="360771086#21" to="24295246#4"/>
    <trip id="moto130" type="moto_motorcycle" depart="7421.70" departLane="best" departSpeed="max" from="325447816#0" to="496739504#5"/>
    <trip id="moto131" type="moto_motorcycle" depart="7478.79" departLane="best" from="151073587#1" to="129281459#1"/>
    <trip id="moto132" type="moto_motorcycle" depart="7535.88" departLane="best" from="118793923#5" to="317137449#13"/>
    <trip id="moto133" type="moto_motorcycle" depart="7592.97" departLane="best" from="24295246#1" to="321544178"/>
    <trip id="moto134" type="moto_motorcycle" depart="7650.06" departLane="best" from="329505082" to="24295100#0"/>
    <trip id="moto135" type="moto_motorcycle" depart="7707.15" departLane="best" from="321572180#7" to="24295139#4"/>
    <trip id="moto136" type="moto_motorcycle" depart="7764.24" departLane="best" from="302109830#1" to="436277095#8"/>
    <trip id="moto137" type="moto_motorcycle" depart="7821.33" departLane="best" departSpeed="max" from="401494444#0" to="118793923#3"/>
    <trip id="moto138" type="moto_motorcycle" depart="7878.42" departLane="best" from="279653481#7" to="24295146#0"/>
    <trip id="moto139" type="moto_motorcycle" depart="7935.51" departLane="best" from="-24267146#0" to="344084913#3"/>
    <trip id="moto140" type="moto_motorcycle" depart="7992.60" departLane="best" from="324601502#0" to="24295139#3"/>
    <trip id="moto141" type="moto_motorcycle" depart="8049.69" departLane="best" from="329505437#4" to="317137449#12"/>
    <trip id="moto142" type="moto_motorcycle" depart="8106.78" departLane="best" from="284925148#0" to="-24267146#0"/>
    <trip id="moto144" type="moto_motorcycle" depart="8220.96" departLane="best" departSpeed="max" from="436277095#0" to="317137449#10"/>
    <trip id="moto145" type="moto_motorcycle" depart="8278.05" departLane="best" from="369135366#0" to="320249068#2"/>
    <trip id="moto146" type="moto_motorcycle" depart="8335.14" departLane="best" from="152762229#2" to="152762229#0"/>
    <trip id="moto147" type="moto_motorcycle" depart="8392.23" departLane="best" from="24305273#1" to="436277095#6"/>
    <trip id="moto148" type="moto_motorcycle" depart="8449.32" departLane="best" from="360771086#1" to="401494444#2"/>
    <trip id="moto149" type="moto_motorcycle" depart="8506.41" departLane="best" from="435546424#2" to="24295100#1"/>
    <trip id="moto150" type="moto_motorcycle" depart="8563.50" departLane="best" from="24295139#4" to="118793923#7"/>
    <trip id="moto152" type="moto_motorcycle" depart="8677.68" departLane="best" departSpeed="max" from="279653481#0" to="321572180#0"/>
    <trip id="moto153" type="moto_motorcycle" depart="8734.77" departLane="best" from="152762229#8" to="496739504#2"/>
    <trip id="moto154" type="moto_motorcycle" depart="8791.86" departLane="best" from="401494444#3" to="571354729"/>
    <trip id="moto155" type="moto_motorcycle" depart="8848.95" departLane="best" from="360771086#19" to="435545285"/>
    <trip id="moto156" type="moto_motorcycle" depart="8906.04" departLane="best" from="-344372307#2" to="329505241#1"/>
    <trip id="moto157" type="moto_motorcycle" depart="8963.13" departLane="best" from="24305282#2" to="496739504#2"/>
    <trip id="moto158" type="moto_motorcycle" depart="9020.22" departLane="best" from="360771086#14" to="401494444#3"/>
    <trip id="moto159" type="moto_motorcycle" depart="9077.31" departLane="best" from="360771086#19" to="24295139#6"/>
    <trip id="moto160" type="moto_motorcycle" depart="9134.40" departLane="best" from="344372307#2" to="118793923#8"/>
    <trip id="moto161" type="moto_motorcycle" depart="9191.49" departLane="best" from="24295136#18" to="360771086#21"/>
    <trip id="moto162" type="moto_motorcycle" depart="9248.58" departLane="best" from="360771086#1" to="24295136#16"/>
    <trip id="moto163" type="moto_motorcycle" depart="9305.67" departLane="best" from="24305282#0" to="401494444#3"/>
    <trip id="moto164" type="moto_motorcycle" depart="9362.76" departLane="best" from="522768610#4" to="24295146#1"/>
    <trip id="moto165" type="moto_motorcycle" depart="9419.85" departLane="best" from="324601502#1" to="24305365#4"/>
    <trip id="moto166" type="moto_motorcycle" depart="9476.94" departLane="best" from="571354729" to="314360433#8"/>
    <trip id="moto167" type="moto_motorcycle" depart="9534.03" departLane="best" from="496739504#0" to="129281459#1"/>
    <trip id="moto168" type="moto_motorcycle" depart="9591.12" departLane="best" from="522768610#5" to="156115617#9"/>
    <trip id="moto169" type="moto_motorcycle" depart="9648.21" departLane="best" from="522768610#2" to="24295139#6"/>
    <trip id="moto170" type="moto_motorcycle" depart="9705.30" departLane="best" from="118793923#6" to="279653481#5"/>
    <trip id="moto171" type="moto_motorcycle" depart="9762.39" departLane="best" from="329505240#4" to="24295254#5"/>
    <trip id="moto172" type="moto_motorcycle" depart="9819.48" departLane="best" from="321544196#2" to="302109830#0"/>
    <trip id="moto173" type="moto_motorcycle" depart="9876.57" departLane="best" from="24305365#6" to="320249039#2"/>
    <trip id="moto175" type="moto_motorcycle" depart="9990.75" departLane="best" from="-133242880#1" to="496739504#0"/>
    <trip id="moto176" type="moto_motorcycle" depart="10047.84" departLane="best" from="329876536#0" to="326569837#0"/>
    <trip id="moto177" type="moto_motorcycle" depart="10104.93" departLane="best" from="24305294#3" to="118793921#2"/>
    <trip id="moto178" type="moto_motorcycle" depart="10162.02" departLane="best" departSpeed="max" from="325447816#0" to="24305225"/>
    <trip id="moto179" type="moto_motorcycle" depart="10219.11" departLane="best" from="24305273#3" to="401494444#12"/>
    <trip id="moto180" type="moto_motorcycle" depart="10276.20" departLane="best" from="329505240#0" to="24295250#0"/>
    <trip id="moto181" type="moto_motorcycle" depart="10333.29" departLane="best" from="24305273#1" to="24305370#0"/>
    <trip id="moto182" type="moto_motorcycle" depart="10390.38" departLane="best" from="24305399#4" to="24295246#3"/>
    <trip id="moto183" type="moto_motorcycle" depart="10447.47" departLane="best" from="133242880#1" to="24305399#3"/>
    <trip id="moto184" type="moto_motorcycle" depart="10504.56" departLane="best" from="496739504#1" to="326569837#5"/>
    <trip id="moto185" type="moto_motorcycle" depart="10561.65" departLane="best" departSpeed="max" from="436277095#0" to="321544196#3"/>
    <trip id="moto186" type="moto_motorcycle" depart="10618.74" departLane="best" from="24305223#3" to="317137449#11"/>
    <trip id="moto187" type="moto_motorcycle" depart="10675.83" departLane="best" from="-133242880#1" to="24295147#1"/>
    <trip id="moto188" type="moto_motorcycle" depart="10732.92" departLane="best" from="284927029#0" to="320249068#0"/>
    <trip id="moto189" type="moto_motorcycle" depart="10790.01" departLane="best" from="324924047#0" to="293115457#1"/>
    <trip id="moto190" type="moto_motorcycle" depart="10847.10" departLane="best" from="293115457#0" to="24295136#1"/>
    <trip id="moto191" type="moto_motorcycle" depart="10904.19" departLane="best" from="293115460#5" to="436277095#7"/>
    <trip id="moto192" type="moto_motorcycle" depart="10961.28" departLane="best" from="360771086#1" to="156115617#5"/>
    <trip id="moto193" type="moto_motorcycle" depart="11018.37" departLane="best" from="118793921#5" to="302109830#2"/>
    <trip id="moto194" type="moto_motorcycle" depart="11075.46" departLane="best" from="321572180#7" to="24305273#2"/>
    <trip id="moto196" type="moto_motorcycle" depart="11189.64" departLane="best" from="326569837#4" to="24295136#15"/>
    <trip id="moto197" type="moto_motorcycle" depart="11246.73" departLane="best" departSpeed="max" from="24295123" to="-646591409"/>
    <trip id="moto198" type="moto_motorcycle" depart="11303.82" departLane="best" from="24295139#2" to="293115460#10"/>
    <trip id="moto199" type="moto_motorcycle" depart="11360.91" departLane="best" from="401494444#1" to="118793921#3"/>
    <trip id="moto200" type="moto_motorcycle" depart="11418.00" departLane="best" from="279653481#2" to="321572180#4"/>
    <trip id="moto201" type="moto_motorcycle" depart="11475.09" departLane="best" from="24295100#0" to="326569903#4"/>
    <trip id="moto202" type="moto_motorcycle" depart="11532.18" departLane="best" from="324924047#1" to="-133242880#1"/>
    <trip id="moto203" type="moto_motorcycle" depart="11589.27" departLane="best" from="329876536#3" to="344084913#2"/>
    <trip id="moto204" type="moto_motorcycle" depart="11646.36" departLane="best" from="118793923#5" to="279653481#1"/>
    <trip id="moto205" type="moto_motorcycle" depart="11703.45" departLane="best" from="156115617#4" to="522768610#6"/>
    <trip id="moto206" type="moto_motorcycle" depart="11760.54" departLane="best" from="314360433#6" to="118793918#0"/>
    <trip id="moto207" type="moto_motorcycle" depart="11817.63" departLane="best" from="24295139#4" to="401494444#12"/>
    <trip id="moto208" type="moto_motorcycle" depart="11874.72" departLane="best" from="293115460#10" to="360771086#13"/>
    <trip id="moto209" type="moto_motorcycle" depart="11931.81" departLane="best" from="326569837#0" to="633508215#3"/>
    <trip id="moto210" type="moto_motorcycle" depart="11988.90" departLane="best" from="321396548#3" to="522768610#3"/>
    <trip id="moto211" type="moto_motorcycle" depart="12045.99" departLane="best" departSpeed="max" from="435546424#0" to="321544196#2"/>
    <trip id="moto212" type="moto_motorcycle" depart="12103.08" departLane="best" from="329505240#0" to="293115460#8"/>
    <trip id="moto213" type="moto_motorcycle" depart="12160.17" departLane="best" from="360771086#8" to="317137449#11"/>
    <trip id="moto214" type="moto_motorcycle" depart="12217.26" departLane="best" from="435546424#1" to="329876536#0"/>
    <trip id="moto215" type="moto_motorcycle" depart="12274.35" departLane="best" from="293115460#5" to="24295139#2"/>
    <trip id="moto216" type="moto_motorcycle" depart="12331.44" departLane="best" from="24295139#3" to="321572180#7"/>
    <trip id="moto217" type="moto_motorcycle" depart="12388.53" departLane="best" from="344084913#3" to="314360433#2"/>
    <trip id="moto218" type="moto_motorcycle" depart="12445.62" departLane="best" from="118793921#2" to="24295147#1"/>
    <trip id="moto219" type="moto_motorcycle" depart="12502.71" departLane="best" from="24295246#1" to="24295254#6"/>
    <trip id="moto220" type="moto_motorcycle" depart="12559.80" departLane="best" departSpeed="max" from="317137449#0" to="152762229#2"/>
    <trip id="moto221" type="moto_motorcycle" depart="12616.89" departLane="best" from="24295136#4" to="326569903#1"/>
    <trip id="moto222" type="moto_motorcycle" depart="12673.98" departLane="best" from="327607339#1" to="118793921#0"/>
    <trip id="moto224" type="moto_motorcycle" depart="12788.16" departLane="best" from="279653481#3" to="24295100#1"/>
    <trip id="moto225" type="moto_motorcycle" depart="12845.25" departLane="best" from="279653481#5" to="436277095#8"/>
    <trip id="moto226" type="moto_motorcycle" depart="12902.34" departLane="best" from="320249068#3" to="326569903#4"/>
    <trip id="moto227" type="moto_motorcycle" depart="12959.43" departLane="best" from="401494444#13" to="344084913#11"/>
    <trip id="moto228" type="moto_motorcycle" depart="13016.52" departLane="best" from="24305365#4" to="-133242880#1"/>
    <trip id="moto229" type="moto_motorcycle" depart="13073.61" departLane="best" from="401494444#11" to="522768610#4"/>
    <trip id="moto230" type="moto_motorcycle" depart="13130.70" departLane="best" from="279653481#5" to="329876536#1"/>
    <trip id="moto231" type="moto_motorcycle" depart="13187.79" departLane="best" from="317137449#11" to="321544178"/>
    <trip id="moto232" type="moto_motorcycle" depart="13244.88" departLane="best" from="24295136#17" to="24295136#13"/>
    <trip id="moto233" type="moto_motorcycle" depart="13301.97" departLane="best" departSpeed="max" from="284927032#0" to="111895261"/>
    <trip id="moto234" type="moto_motorcycle" depart="13359.06" departLane="best" from="24305286#0" to="326569837#5"/>
    <trip id="moto235" type="moto_motorcycle" depart="13416.15" departLane="best" from="24305399#4" to="156115617#3"/>
    <trip id="moto236" type="moto_motorcycle" depart="13473.24" departLane="best" from="293115460#3" to="152762229#0"/>
    <trip id="moto237" type="moto_motorcycle" depart="13530.33" departLane="best" from="321572180#3" to="-684284130"/>
    <trip id="moto239" type="moto_motorcycle" depart="13644.51" departLane="best" from="-571354729" to="324601502#0"/>
    <trip id="moto240" type="moto_motorcycle" depart="13701.60" departLane="best" from="151073587#1" to="293115457#0"/>
    <trip id="moto241" type="moto_motorcycle" depart="13758.69" departLane="best" from="111940154#1" to="24305286#9"/>
    <trip id="moto242" type="moto_motorcycle" depart="13815.78" departLane="best" from="24295136#14" to="24305223#4"/>
    <trip id="moto243" type="moto_motorcycle" depart="13872.87" departLane="best" from="344084913#13" to="24305286#9"/>
    <trip id="moto244" type="moto_motorcycle" depart="13929.96" departLane="best" from="344084913#0" to="360771086#6"/>
    <trip id="moto245" type="moto_motorcycle" depart="13987.05" departLane="best" from="24295139#6" to="118793922#3"/>
    <trip id="moto246" type="moto_motorcycle" depart="14044.14" departLane="best" from="-344372307#0" to="314360433#9"/>
    <trip id="moto247" type="moto_motorcycle" depart="14101.23" departLane="best" from="684284130" to="24305282#0"/>
    <trip id="moto248" type="moto_motorcycle" depart="14158.32" departLane="best" from="324923340" to="344084913#8"/>