<?xml version="1.0" encoding="UTF-8"?>

<!-- generated on Thu Oct 10 16:40:29 2019 by Eclipse SUMO duarouter Version v1_2_0+0622-cbc8645
<configuration xmlns:xsi="http://www.w3.org/2001/XMLSchema-instance" xsi:noNamespaceSchemaLocation="http://sumo.dlr.de/xsd/duarouterConfiguration.xsd">

    <input>
        <net-file value="osm.net.xml"/>
        <route-files value="osm.passenger.trips.xml"/>
    </input>

    <output>
        <output-file value="osm.passenger.trips.xml.tmp"/>
        <write-trips value="true"/>
    </output>

    <time>
        <begin value="0"/>
        <end value="86400.0"/>
    </time>

    <report>
        <no-warnings value="true"/>
        <ignore-errors value="true"/>
        <no-step-log value="true"/>
    </report>

</configuration>
-->

<routes xmlns:xsi="http://www.w3.org/2001/XMLSchema-instance" xsi:noNamespaceSchemaLocation="http://sumo.dlr.de/xsd/routes_file.xsd">
    <vType id="veh_passenger" vClass="passenger"/>
    <trip id="veh0" type="veh_passenger" depart="0.00" departLane="best" from="326569903#4" to="111896823#2"/>
    <trip id="veh1" type="veh_passenger" depart="57.09" departLane="best" from="24305273#6" to="24295136#4"/>
    <trip id="veh2" type="veh_passenger" depart="114.18" departLane="best" departSpeed="max" from="360771086#0" to="329505437#0"/>
    <trip id="veh3" type="veh_passenger" depart="171.27" departLane="best" departSpeed="max" from="435546424#0" to="118793923#8"/>
    <trip id="veh4" type="veh_passenger" depart="228.36" departLane="best" departSpeed="max" from="312662578#0" to="111940154#0"/>
    <trip id="veh5" type="veh_passenger" depart="285.45" departLane="best" from="24295139#6" to="317137449#7"/>
    <trip id="veh6" type="veh_passenger" depart="342.54" departLane="best" from="111895261" to="24295136#15"/>
    <trip id="veh7" type="veh_passenger" depart="399.63" departLane="best" departSpeed="max" from="326569955#0" to="321544196#3"/>
    <trip id="veh9" type="veh_passenger" depart="513.81" departLane="best" departSpeed="max" from="401494444#0" to="-24267146#0"/>
    <trip id="veh10" type="veh_passenger" depart="570.90" departLane="best" departSpeed="max" from="401494444#0" to="344084911"/>
    <trip id="veh11" type="veh_passenger" depart="627.99" departLane="best" from="284925148#0" to="156115617#9"/>
    <trip id="veh12" type="veh_passenger" depart="685.08" departLane="best" from="522768610#0" to="24305286#9"/>
    <trip id="veh13" type="veh_passenger" depart="742.17" departLane="best" departSpeed="max" from="401494444#0" to="344372307#2"/>
    <trip id="veh14" type="veh_passenger" depart="799.26" departLane="best" from="321544178" to="633508213#0"/>
    <trip id="veh15" type="veh_passenger" depart="856.35" departLane="best" from="293115460#16" to="321572180#2"/>
    <trip id="veh16" type="veh_passenger" depart="913.44" departLane="best" from="401494444#8" to="324601502#7"/>
    <trip id="veh17" type="veh_passenger" depart="970.53" departLane="best" from="344084913#11" to="118793920"/>
    <trip id="veh18" type="veh_passenger" depart="1027.62" departLane="best" from="24295147#0" to="24295254#5"/>
    <trip id="veh19" type="veh_passenger" depart="1084.71" departLane="best" from="118793923#2" to="24295139#2"/>
    <trip id="veh20" type="veh_passenger" depart="1141.80" departLane="best" from="133242880#1" to="24295250#1"/>
    <trip id="veh21" type="veh_passenger" depart="1198.89" departLane="best" from="326569903#0" to="24305399#4"/>
    <trip id="veh22" type="veh_passenger" depart="1255.98" departLane="best" from="293115460#0" to="24295136#20"/>
    <trip id="veh23" type="veh_passenger" depart="1313.07" departLane="best" from="24305223#4" to="522768610#8"/>
    <trip id="veh24" type="veh_passenger" depart="1370.16" departLane="best" departSpeed="max" from="326569955#0" to="326569837#4"/>
    <trip id="veh25" type="veh_passenger" depart="1427.25" departLane="best" departSpeed="max" from="24295123" to="344372307#1"/>
    <trip id="veh26" type="veh_passenger" depart="1484.34" departLane="best" from="24295100#0" to="284925148#1"/>
    <trip id="veh27" type="veh_passenger" depart="1541.43" departLane="best" from="633508213#5" to="327607339#0"/>
    <trip id="veh28" type="veh_passenger" depart="1598.52" departLane="best" from="321572180#6" to="329876536#0"/>
    <trip id="veh29" type="veh_passenger" depart="1655.61" departLane="best" from="401494444#3" to="369135366#0"/>
    <trip id="veh30" type="veh_passenger" depart="1712.70" departLane="best" from="24295147#1" to="111940154#1"/>
    <trip id="veh31" type="veh_passenger" depart="1769.79" departLane="best" from="24305365#4" to="24295246#3"/>
    <trip id="veh32" type="veh_passenger" depart="1826.88" departLane="best" from="24295139#2" to="522768610#8"/>
    <trip id="veh33" type="veh_passenger" depart="1883.97" departLane="best" departSpeed="max" from="435541876#0" to="24305273#6"/>
    <trip id="veh34" type="veh_passenger" depart="1941.06" departLane="best" from="327607339#0" to="284927029#2"/>
    <trip id="veh35" type="veh_passenger" depart="1998.15" departLane="best" from="321572180#8" to="24295246#0"/>
    <trip id="veh36" type="veh_passenger" depart="2055.24" departLane="best" from="324924047#1" to="436478051#2"/>
    <trip id="veh37" type="veh_passenger" depart="2112.33" departLane="best" from="302109830#1" to="24295136#21"/>
    <trip id="veh38" type="veh_passenger" depart="2169.42" departLane="best" from="633508215#3" to="317137449#9"/>
    <trip id="veh39" type="veh_passenger" depart="2226.51" departLane="best" from="118793923#7" to="118793920"/>
    <trip id="veh40" type="veh_passenger" depart="2283.60" departLane="best" from="152762229#0" to="326569902#5"/>
    <trip id="veh41" type="veh_passenger" depart="2340.69" departLane="best" departSpeed="max" from="401494444#0" to="293115460#17"/>
    <trip id="veh42" type="veh_passenger" depart="2397.78" departLane="best" from="118793921#3" to="284925148#1"/>
    <trip id="veh43" type="veh_passenger" depart="2454.87" departLane="best" from="633508215#3" to="320601926#1"/>
    <trip id="veh45" type="veh_passenger" depart="2569.05" departLane="best" departSpeed="max" from="-24295097#1" to="344084913#7"/>
    <trip id="veh46" type="veh_passenger" depart="2626.14" departLane="best" from="329505240#5" to="321396548#3"/>
    <trip id="veh47" type="veh_passenger" depart="2683.23" departLane="best" from="24305223#4" to="327607339#0"/>
    <trip id="veh48" type="veh_passenger" depart="2740.32" departLane="best" from="152762229#1" to="293115460#3"/>
    <trip id="veh49" type="veh_passenger" depart="2797.41" departLane="best" from="314360433#4" to="522768611#1"/>
    <trip id="veh50" type="veh_passenger" depart="2854.50" departLane="best" departSpeed="max" from="435541876#0" to="24295246#1"/>
    <trip id="veh51" type="veh_passenger" depart="2911.59" departLane="best" from="317137449#14" to="24295097#1"/>
    <trip id="veh52" type="veh_passenger" depart="2968.68" departLane="best" departSpeed="max" from="436277095#0" to="436277095#7"/>
    <trip id="veh53" type="veh_passenger" depart="3025.77" departLane="best" from="24305286#9" to="327607339#0"/>
    <trip id="veh54" type="veh_passenger" depart="3082.86" departLane="best" from="326569837#0" to="156115617#8"/>
    <trip id="veh56" type="veh_passenger" depart="3197.04" departLane="best" from="-133242880#1" to="24305286#10"/>
    <trip id="veh57" type="veh_passenger" depart="3254.13" departLane="best" from="-344372307#2" to="522768610#6"/>
    <trip id="veh58" type="veh_passenger" depart="3311.22" departLane="best" departSpeed="max" from="435541876#0" to="401494444#3"/>
    <trip id="veh59" type="veh_passenger" depart="3368.31" departLane="best" from="24305365#1" to="118793921#4"/>
    <trip id="veh60" type="veh_passenger" depart="3425.40" departLane="best" departSpeed="max" from="435541876#0" to="522768611#0"/>
    <trip id="veh62" type="veh_passenger" depart="3539.58" departLane="best" from="118793922#0" to="360771086#23"/>
    <trip id="veh63" type="veh_passenger" depart="3596.67" departLane="best" from="360771086#3" to="152762229#8"/>
    <trip id="veh64" type="veh_passenger" depart="3653.76" departLane="best" departSpeed="max" from="315196302#0" to="321572180#1"/>
    <trip id="veh65" type="veh_passenger" depart="3710.85" departLane="best" from="24305223#3" to="436277095#7"/>
    <trip id="veh66" type="veh_passenger" depart="3767.94" departLane="best" departSpeed="max" from="312662578#0" to="24295136#21"/>
    <trip id="veh67" type="veh_passenger" depart="3825.03" departLane="best" from="321544196#2" to="344372307#2"/>
    <trip id="veh68" type="veh_passenger" depart="3882.12" departLane="best" from="24295136#4" to="24305273#3"/>
    <trip id="veh69" type="veh_passenger" depart="3939.21" departLane="best" from="633508215#0" to="327607511#0"/>
    <trip id="veh70" type="veh_passenger" depart="3996.30" departLane="best" departSpeed="max" from="314360433#0" to="320249068#3"/>
    <trip id="veh71" type="veh_passenger" depart="4053.39" departLane="best" from="279653481#6" to="324923340"/>
    <trip id="veh72" type="veh_passenger" depart="4110.48" departLane="best" from="24295246#0" to="24295136#21"/>
    <trip id="veh73" type="veh_passenger" depart="4167.57" departLane="best" from="118793922#0" to="326569903#0"/>
    <trip id="veh74" type="veh_passenger" depart="4224.66" departLane="best" from="24295147#1" to="496739504#1"/>
    <trip id="veh75" type="veh_passenger" depart="4281.75" departLane="best" from="401494444#6" to="118793923#2"/>
    <trip id="veh76" type="veh_passenger" depart="4338.84" departLane="best" from="24295246#3" to="329505240#0"/>
    <trip id="veh77" type="veh_passenger" depart="4395.93" departLane="best" from="24295139#3" to="153125093#0"/>
    <trip id="veh78" type="veh_passenger" depart="4453.02" departLane="best" from="436478051#1" to="324601502#3"/>
    <trip id="veh79" type="veh_passenger" depart="4510.11" departLane="best" departSpeed="max" from="401494444#0" to="24295136#11"/>
    <trip id="veh80" type="veh_passenger" depart="4567.20" departLane="best" departSpeed="max" from="133242880#0" to="293115460#18"/>
    <trip id="veh81" type="veh_passenger" depart="4624.29" departLane="best" departSpeed="max" from="312662578#0" to="314360433#4"/>
    <trip id="veh82" type="veh_passenger" depart="4681.38" departLane="best" from="344372307#2" to="329505240#4"/>
    <trip id="veh83" type="veh_passenger" depart="4738.47" departLane="best" from="633508213#0" to="151181510#1"/>
    <trip id="veh84" type="veh_passenger" depart="4795.56" departLane="best" departSpeed="max" from="312662578#0" to="24305294#0"/>
    <trip id="veh85" type="veh_passenger" depart="4852.65" departLane="best" from="401494444#8" to="24295139#7"/>
    <trip id="veh86" type="veh_passenger" depart="4909.74" departLane="best" from="24295136#16" to="302109830#0"/>
    <trip id="veh87" type="veh_passenger" depart="4966.83" departLane="best" departSpeed="max" from="312662578#0" to="24295250#1"/>
    <trip id="veh88" type="veh_passenger" depart="5023.92" departLane="best" from="321572180#3" to="118793921#1"/>
    <trip id="veh89" type="veh_passenger" depart="5081.01" departLane="best" from="684284130" to="401494444#4"/>
    <trip id="veh90" type="veh_passenger" depart="5138.10" departLane="best" from="401494444#4" to="172580997"/>
    <trip id="veh91" type="veh_passenger" depart="5195.19" departLane="best" departSpeed="max" from="317137449#0" to="24295136#21"/>
    <trip id="veh92" type="veh_passenger" depart="5252.28" departLane="best" from="302109830#2" to="118793921#5"/>
    <trip id="veh93" type="veh_passenger" depart="5309.37" departLane="best" from="293115460#16" to="633508215#3"/>
    <trip id="veh95" type="veh_passenger" depart="5423.55" departLane="best" from="314360433#5" to="293115460#18"/>
    <trip id="veh96" type="veh_passenger" depart="5480.64" departLane="best" from="522768610#0" to="633508215#4"/>
    <trip id="veh97" type="veh_passenger" depart="5537.73" departLane="best" from="321572180#6" to="344084913#5"/>
    <trip id="veh98" type="veh_passenger" depart="5594.82" departLane="best" from="156115617#6" to="24295254#6"/>
    <trip id="veh99" type="veh_passenger" depart="5651.91" departLane="best" from="522768610#5" to="324601502#7"/>
    <trip id="veh100" type="veh_passenger" depart="5709.00" departLane="best" from="321572180#0" to="360771086#20"/>
    <trip id="veh101" type="veh_passenger" depart="5766.09" departLane="best" from="118793921#0" to="324601502#7"/>
    <trip id="veh102" type="veh_passenger" depart="5823.18" departLane="best" from="317137449#17" to="435541876#1"/>
    <trip id="veh103" type="veh_passenger" depart="5880.27" departLane="best" from="156115617#7" to="522768611#1"/>
    <trip id="veh104" type="veh_passenger" depart="5937.36" departLane="best" from="118793923#2" to="24295100#1"/>
    <trip id="veh105" type="veh_passenger" depart="5994.45" departLane="best" departSpeed="max" from="325447816#0" to="329505241#1"/>
    <trip id="veh106" type="veh_passenger" depart="6051.54" departLane="best" from="24295246#2" to="152762229#4"/>
    <trip id="veh107" type="veh_passenger" depart="6108.63" departLane="best" departSpeed="max" from="435546424#0" to="24295139#7"/>
    <trip id="veh108" type="veh_passenger" depart="6165.72" departLane="best" departSpeed="max" from="325447816#0" to="326569902#2"/>
    <trip id="veh109" type="veh_passenger" depart="6222.81" departLane="best" departSpeed="max" from="312662578#0" to="324601502#7"/>
    <trip id="veh110" type="veh_passenger" depart="6279.90" departLane="best" from="320249068#3" to="522768610#8"/>
    <trip id="veh111" type="veh_passenger" depart="6336.99" departLane="best" from="24295136#8" to="344084913#4"/>
    <trip id="veh112" type="veh_passenger" depart="6394.08" departLane="best" from="24295246#4" to="284927029#2"/>
    <trip id="veh113" type="veh_passenger" depart="6451.17" departLane="best" from="327607511#1" to="24295254#6"/>
    <trip id="veh114" type="veh_passenger" depart="6508.26" departLane="best" from="24305365#5" to="360771086#22"/>
    <trip id="veh115" type="veh_passenger" depart="6565.35" departLane="best" from="118793922#3" to="314360433#1"/>
    <trip id="veh116" type="veh_passenger" depart="6622.44" departLane="best" from="646591409" to="633508215#4"/>
    <trip id="veh117" type="veh_passenger" depart="6679.53" departLane="best" from="118793922#3" to="24295136#21"/>
    <trip id="veh118" type="veh_passenger" depart="6736.62" departLane="best" from="24305223#3" to="522768610#8"/>
    <trip id="veh119" type="veh_passenger" depart="6793.71" departLane="best" departSpeed="max" from="435541876#0" to="436287845#0"/>
    <trip id="veh120" type="veh_passenger" depart="6850.80" departLane="best" from="293115460#0" to="156115617#9"/>
    <trip id="veh121" type="veh_passenger" depart="6907.89" departLane="best" from="401494444#14" to="344084913#0"/>
    <trip id="veh122" type="veh_passenger" depart="6964.98" departLane="best" departSpeed="max" from="326569955#0" to="-24295097#0"/>
    <trip id="veh123" type="veh_passenger" depart="7022.07" departLane="best" from="327607339#2" to="522768610#8"/>
    <trip id="veh124" type="veh_passenger" depart="7079.16" departLane="best" from="152762229#8" to="152762229#11"/>
    <trip id="veh125" type="veh_passenger" depart="7136.25" departLane="best" from="151073587#1" to="321572180#3"/>
    <trip id="veh126" type="veh_passenger" depart="7193.34" departLane="best" from="24305273#4" to="326569837#0"/>
    <trip id="veh127" type="veh_passenger" depart="7250.43" departLane="best" from="344084913#7" to="24295136#17"/>
    <trip id="veh128" type="veh_passenger" depart="7307.52" departLane="best" from="326569902#5" to="24295246#1"/>
    <trip id="veh129" type="veh_passenger" depart="7364.61" departLane="best" from="317137449#1" to="496739504#1"/>
    <trip id="veh130" type="veh_passenger" depart="7421.70" departLane="best" from="401494444#3" to="118793923#8"/>
    <trip id="veh131" type="veh_passenger" depart="7478.79" departLane="best" departSpeed="max" from="312662578#0" to="24295250#1"/>
    <trip id="veh132" type="veh_passenger" depart="7535.88" departLane="best" departSpeed="max" from="-24267146#1" to="360771086#7"/>
    <trip id="veh133" type="veh_passenger" depart="7592.97" departLane="best" from="326569903#1" to="24295246#0"/>
    <trip id="veh134" type="veh_passenger" depart="7650.06" departLane="best" departSpeed="max" from="360771086#0" to="321572180#2"/>
    <trip id="veh135" type="veh_passenger" depart="7707.15" departLane="best" departSpeed="max" from="314360433#0" to="-344372307#0"/>
    <trip id="veh136" type="veh_passenger" depart="7764.24" departLane="best" from="118793923#0" to="436287845#0"/>
    <trip id="veh137" type="veh_passenger" depart="7821.33" departLane="best" departSpeed="max" from="436277095#0" to="321544196#3"/>
    <trip id="veh139" type="veh_passenger" depart="7935.51" departLane="best" from="156115617#3" to="152762229#8"/>
    <trip id="veh140" type="veh_passenger" depart="7992.60" departLane="best" from="24305365#1" to="436478051#2"/>
    <trip id="veh142" type="veh_passenger" depart="8106.78" departLane="best" from="435546424#1" to="24295136#20"/>
    <trip id="veh143" type="veh_passenger" depart="8163.87" departLane="best" from="24295254#5" to="151181510#1"/>
    <trip id="veh144" type="veh_passenger" depart="8220.96" departLane="best" from="369135366#1" to="436287845#0"/>
    <trip id="veh145" type="veh_passenger" depart="8278.05" departLane="best" departSpeed="max" from="312662578#0" to="326569902#2"/>
    <trip id="veh146" type="veh_passenger" depart="8335.14" departLane="best" from="156115617#6" to="522768610#6"/>
    <trip id="veh147" type="veh_passenger" depart="8392.23" departLane="best" from="401494444#8" to="633508213#1"/>
    <trip id="veh148" type="veh_passenger" depart="8449.32" departLane="best" departSpeed="max" from="401494444#0" to="436287845#0"/>
    <trip id="veh149" type="veh_passenger" depart="8506.41" departLane="best" from="111895261" to="360771086#13"/>
    <trip id="veh150" type="veh_passenger" depart="8563.50" departLane="best" departSpeed="max" from="279653481#0" to="522768610#6"/>
    <trip id="veh151" type="veh_passenger" depart="8620.59" departLane="best" departSpeed="max" from="401494444#0" to="436277095#3"/>
    <trip id="veh152" type="veh_passenger" depart="8677.68" departLane="best" departSpeed="max" from="401494444#0" to="24295246#2"/>
    <trip id="veh153" type="veh_passenger" depart="8734.77" departLane="best" departSpeed="max" from="396425746" to="152762229#1"/>
    <trip id="veh155" type="veh_passenger" depart="8848.95" departLane="best" from="24295146#0" to="401494444#15"/>
    <trip id="veh156" type="veh_passenger" depart="8906.04" departLane="best" from="314360433#6" to="24305223#3"/>
    <trip id="veh157" type="veh_passenger" depart="8963.13" departLane="best" departSpeed="max" from="401494444#0" to="24295136#8"/>
    <trip id="veh158" type="veh_passenger" depart="9020.22" departLane="best" from="-684284130" to="24295136#12"/>
    <trip id="veh159" type="veh_passenger" depart="9077.31" departLane="best" departSpeed="max" from="279653481#0" to="436277095#4"/>
    <trip id="veh160" type="veh_passenger" depart="9134.40" departLane="best" from="522768610#4" to="24295250#1"/>
    <trip id="veh161" type="veh_passenger" depart="9191.49" departLane="best" from="633508213#0" to="321396548#3"/>
    <trip id="veh162" type="veh_passenger" depart="9248.58" departLane="best" from="496739503" to="152762229#11"/>
    <trip id="veh163" type="veh_passenger" depart="9305.67" departLane="best" from="152762229#0" to="293115460#3"/>
    <trip id="veh164" type="veh_passenger" depart="9362.76" departLane="best" from="344372307#2" to="24305273#5"/>
    <trip id="veh165" type="veh_passenger" depart="9419.85" departLane="best" departSpeed="max" from="325447816#0" to="320249039#0"/>
    <trip id="veh166" type="veh_passenger" depart="9476.94" departLane="best" from="293115460#4" to="324601502#7"/>
    <trip id="veh167" type="veh_passenger" depart="9534.03" departLane="best" departSpeed="max" from="24305223#0" to="344084913#13"/>
    <trip id="veh168" type="veh_passenger" depart="9591.12" departLane="best" from="321544196#0" to="344084913#7"/>
    <trip id="veh169" type="veh_passenger" depart="9648.21" departLane="best" from="360771086#1" to="329505240#1"/>
    <trip id="veh170" type="veh_passenger" depart="9705.30" departLane="best" from="293115457#1" to="118793923#2"/>
    <trip id="veh171" type="veh_passenger" depart="9762.39" departLane="best" from="327607339#2" to="24305286#5"/>
    <trip id="veh172" type="veh_passenger" depart="9819.48" departLane="best" from="24305365#4" to="401494444#8"/>
    <trip id="veh173" type="veh_passenger" depart="9876.57" departLane="best" from="344084913#8" to="24295254#6"/>
    <trip id="veh174" type="veh_passenger" depart="9933.66" departLane="best" from="24305365#2" to="293115457#3"/>
    <trip id="veh175" type="veh_passenger" depart="9990.75" departLane="best" departSpeed="max" from="312662578#0" to="24295254#6"/>
    <trip id="veh176" type="veh_passenger" depart="10047.84" departLane="best" from="152762229#4" to="293115460#17"/>
    <trip id="veh177" type="veh_passenger" depart="10104.93" departLane="best" from="496739503" to="329505437#0"/>
    <trip id="veh178" type="veh_passenger" depart="10162.02" departLane="best" from="435546424#2" to="326569902#0"/>
    <trip id="veh179" type="veh_passenger" depart="10219.11" departLane="best" from="24305294#0" to="321572180#0"/>
    <trip id="veh180" type="veh_passenger" depart="10276.20" departLane="best" from="-133242880#1" to="24295254#4"/>
    <trip id="veh181" type="veh_passenger" depart="10333.29" departLane="best" departSpeed="max" from="314360433#0" to="324601502#7"/>
    <trip id="veh182" type="veh_passenger" depart="10390.38" departLane="best" from="327607339#0" to="314360433#4"/>
    <trip id="veh183" type="veh_passenger" depart="10447.47" departLane="best" from="314360433#1" to="24295136#21"/>
    <trip id="veh184" type="veh_passenger" depart="10504.56" departLane="best" departSpeed="max" from="315196302#0" to="496739503"/>
    <trip id="veh185" type="veh_passenger" depart="10561.65" departLane="best" departSpeed="max" from="401494444#0" to="24267146#0"/>
    <trip id="veh186" type="veh_passenger" depart="10618.74" departLane="best" from="326569902#5" to="24305286#8"/>
    <trip id="veh187" type="veh_passenger" depart="10675.83" departLane="best" from="401494444#11" to="360771086#22"/>
    <trip id="veh188" type="veh_passenger" depart="10732.92" departLane="best" from="327607511#1" to="24295136#5"/>
    <trip id="veh189" type="veh_passenger" depart="10790.01" departLane="best" from="24295136#20" to="111896823#2"/>
    <trip id="veh190" type="veh_passenger" depart="10847.10" departLane="best" from="401494444#4" to="118793923#3"/>
    <trip id="veh191" type="veh_passenger" depart="10904.19" departLane="best" departSpeed="max" from="312662578#0" to="326569903#0"/>
    <trip id="veh192" type="veh_passenger" depart="10961.28" departLane="best" from="24295136#18" to="344084911"/>
    <trip id="veh193" type="veh_passenger" depart="11018.37" departLane="best" from="327607339#0" to="-133242880#1"/>
    <trip id="veh194" type="veh_passenger" depart="11075.46" departLane="best" from="360771086#15" to="360771086#7"/>
    <trip id="veh195" type="veh_passenger" depart="11132.55" departLane="best" departSpeed="max" from="151073587#0" to="293115460#18"/>
    <trip id="veh196" type="veh_passenger" depart="11189.64" departLane="best" from="24295136#1" to="522768611#1"/>
    <trip id="veh197" type="veh_passenger" depart="11246.73" departLane="best" from="320249039#2" to="118793921#1"/>
    <trip id="veh198" type="veh_passenger" depart="11303.82" departLane="best" from="314360433#5" to="401494444#14"/>
    <trip id="veh199" type="veh_passenger" depart="11360.91" departLane="best" from="327607511#0" to="633508215#4"/>
    <trip id="veh200" type="veh_passenger" depart="11418.00" departLane="best" departSpeed="max" from="325447816#0" to="522768611#1"/>
    <trip id="veh201" type="veh_passenger" depart="11475.09" departLane="best" departSpeed="max" from="435546424#0" to="326569902#0"/>
    <trip id="veh202" type="veh_passenger" depart="11532.18" departLane="best" from="344084913#8" to="317137449#7"/>
    <trip id="veh203" type="veh_passenger" depart="11589.27" departLane="best" from="401494444#14" to="321572180#0"/>
    <trip id="veh204" type="veh_passenger" depart="11646.36" departLane="best" departSpeed="max" from="315196302#0" to="24295147#0"/>
    <trip id="veh205" type="veh_passenger" depart="11703.45" departLane="best" from="326569902#4" to="24295250#1"/>
    <trip id="veh206" type="veh_passenger" depart="11760.54" departLane="best" from="118793923#1" to="24295254#0"/>
    <trip id="veh207" type="veh_passenger" depart="11817.63" departLane="best" from="321544196#3" to="156115617#2"/>
    <trip id="veh208" type="veh_passenger" depart="11874.72" departLane="best" from="24295246#0" to="344084911"/>
    <trip id="veh209" type="veh_passenger" depart="11931.81" departLane="best" from="344084913#13" to="118793922#3"/>
    <trip id="veh210" type="veh_passenger" depart="11988.90" departLane="best" departSpeed="max" from="312662578#0" to="321544196#0"/>
    <trip id="veh211" type="veh_passenger" depart="12045.99" departLane="best" departSpeed="max" from="312662578#0" to="24295136#18"/>
    <trip id="veh212" type="veh_passenger" depart="12103.08" departLane="best" departSpeed="max" from="312662578#0" to="496739504#1"/>
    <trip id="veh213" type="veh_passenger" depart="12160.17" departLane="best" from="324924047#1" to="344084911"/>
    <trip id="veh214" type="veh_passenger" depart="12217.26" departLane="best" from="401494444#6" to="360771086#4"/>
    <trip id="veh215" type="veh_passenger" depart="12274.35" departLane="best" departSpeed="max" from="284927032#0" to="360771086#23"/>
    <trip id="veh216" type="veh_passenger" depart="12331.44" departLane="best" from="401494444#5" to="522768611#1"/>
    <trip id="veh217" type="veh_passenger" depart="12388.53" departLane="best" departSpeed="max" from="312662578#0" to="360771086#20"/>
    <trip id="veh218" type="veh_passenger" depart="12445.62" departLane="best" from="321572180#1" to="324924047#2"/>
    <trip id="veh220" type="veh_passenger" depart="12559.80" departLane="best" departSpeed="max" from="314360433#0" to="111940154#0"/>
    <trip id="veh221" type="veh_passenger" depart="12616.89" departLane="best" from="279653481#3" to="329505437#0"/>
    <trip id="veh222" type="veh_passenger" depart="12673.98" departLane="best" departSpeed="max" from="312662578#0" to="172580997"/>
    <trip id="veh223" type="veh_passenger" depart="12731.07" departLane="best" from="314360433#9" to="152762229#8"/>
    <trip id="veh224" type="veh_passenger" depart="12788.16" departLane="best" from="326569902#2" to="111896823#3"/>
    <trip id="veh225" type="veh_passenger" depart="12845.25" departLane="best" from="293115460#8" to="321572180#8"/>
    <trip id="veh226" type="veh_passenger" depart="12902.34" departLane="best" from="152762229#9" to="314360433#2"/>
    <trip id="veh227" type="veh_passenger" depart="12959.43" departLane="best" from="118793919#0" to="284925148#1"/>
    <trip id="veh228" type="veh_passenger" depart="13016.52" departLane="best" from="360771086#21" to="284925148#1"/>
    <trip id="veh229" type="veh_passenger" depart="13073.61" departLane="best" departSpeed="max" from="24305223#0" to="118793923#8"/>
    <trip id="veh230" type="veh_passenger" depart="13130.70" departLane="best" from="684284130" to="24305365#3"/>
    <trip id="veh231" type="veh_passenger" depart="13187.79" departLane="best" departSpeed="max" from="326569955#0" to="369135366#1"/>
    <trip id="veh232" type="veh_passenger" depart="13244.88" departLane="best" departSpeed="max" from="326569955#0" to="360771086#23"/>
    <trip id="veh233" type="veh_passenger" depart="13301.97" departLane="best" from="496739504#3" to="24295136#15"/>
    <trip id="veh234" type="veh_passenger" depart="13359.06" departLane="best" from="-344372307#2" to="156115617#8"/>
    <trip id="veh235" type="veh_passenger" depart="13416.15" departLane="best" from="324601502#0" to="24295136#21"/>
    <trip id="veh236" type="veh_passenger" depart="13473.24" departLane="best" from="344084913#0" to="360771086#4"/>
    <trip id="veh237" type="veh_passenger" depart="13530.33" departLane="best" departSpeed="max" from="24295123" to="326569837#1"/>
    <trip id="veh238" type="veh_passenger" depart="13587.42" departLane="best" from="360771086#13" to="152762229#11"/>
    <trip id="veh239" type="veh_passenger" depart="13644.51" departLane="best" from="401494444#11" to="522768611#1"/>
    <trip id="veh240" type="veh_passenger" depart="13701.60" departLane="best" from="151073587#1" to="111896823#2"/>
    <trip id="veh241" type="veh_passenger" depart="13758.69" departLane="best" from="24305365#3" to="329505437#0"/>
    <trip id="veh242" type="veh_passenger" depart="13815.78" departLane="best" from="522768610#0" to="284927029#2"/>
    <trip id="veh243" type="veh_passenger" depart="13872.87" departLane="best" from="344084913#5" to="118793923#5"/>
    <trip id="veh244" type="veh_passenger" depart="13929.96" departLane="best" from="329876536#0" to="326569902#5"/>
    <trip id="veh245" type="veh_passenger" depart="13987.05" departLane="best" departSpeed="max" from="151073587#0" to="360771086#8"/>
    <trip id="veh246" type="veh_passenger" depart="14044.14" departLane="best" from="152762229#11" to="633508215#0"/>
    <trip id="veh247" type="veh_passenger" depart="14101.23" departLane="best" from="369135366#1" to="24305365#2"/>
    <trip id="veh248" type="veh_passenger" depart="14158.32" departLane="best" departSpeed="max" from="314360433#0" to="279653481#7"/>