<routes xmlns:xsi="http://www.w3.org/2001/XMLSchema-instance" xsi:noNamespaceSchemaLocation="http://sumo.dlr.de/xsd/routes_file.xsd">
    <vType id="truck_truck" vClass="truck" />
    <trip depart="48038.00" departLane="best" departSpeed="max" from="435546424#0" id="truck0" to="118793923#4" type="truck_truck" />
    <trip depart="45912.00" departLane="best" from="24295136#14" id="truck1" to="293115460#18" type="truck_truck" />
    <trip depart="30562.00" departLane="best" from="360771086#20" id="truck3" to="327607339#0" type="truck_truck" />
    <trip depart="7713.00" departLane="best" from="496739504#5" id="truck4" to="24295254#6" type="truck_truck" />
    <trip depart="44320.00" departLane="best" from="118793923#0" id="truck5" to="118793923#8" type="truck_truck" />
    <trip depart="40506.00" departLane="best" departSpeed="max" from="401494444#0" id="truck6" to="320601926#1" type="truck_truck" />
    <trip depart="6541.00" departLane="best" from="360771086#21" id="truck7" to="329505240#4" type="truck_truck" />
    <trip depart="41008.00" departLane="best" from="315196302#1" id="truck8" to="571354729" type="truck_truck" />
    <trip depart="880.00" departLane="best" departSpeed="max" from="396425746" id="truck10" to="321544196#3" type="truck_truck" />
    <trip depart="7661.00" departLane="best" from="401494444#2" id="truck11" to="320249039#0" type="truck_truck" />
    <trip depart="72602.00" departLane="best" from="327607339#1" id="truck12" to="111940154#2" type="truck_truck" />
    <trip depart="17186.00" departLane="best" from="118793923#3" id="truck13" to="24295139#4" type="truck_truck" />
    <trip depart="28685.00" departLane="best" from="324601502#1" id="truck14" to="24305273#5" type="truck_truck" />
    <trip depart="68652.00" departLane="best" from="24305365#4" id="truck15" to="24295097#1" type="truck_truck" />
    <trip depart="15207.00" departLane="best" from="156115617#0" id="truck16" to="329505240#4" type="truck_truck" />
    <trip depart="16967.00" departLane="best" from="633508213#5" id="truck17" to="321572180#8" type="truck_truck" />
    <trip depart="7511.00" departLane="best" from="317137449#12" id="truck18" to="326569902#4" type="truck_truck" />
    <trip depart="47002.00" departLane="best" from="24295136#11" id="truck19" to="522768610#5" type="truck_truck" />
    <trip depart="795.00" departLane="best" departSpeed="max" from="435541876#0" id="truck20" to="24295246#4" type="truck_truck" />
    <trip depart="57533.00" departLane="best" departSpeed="max" from="325447816#0" id="truck21" to="24305294#0" type="truck_truck" />
    <trip depart="6911.00" departLane="best" departSpeed="max" from="436277095#0" id="truck22" to="284925148#1" type="truck_truck" />
    <trip depart="2143.00" departLane="best" from="646591409" id="truck23" to="293115460#3" type="truck_truck" />
    <trip depart="37019.00" departLane="best" from="360771086#10" id="truck24" to="24305370#1" type="truck_truck" />
    <trip depart="5941.00" departLane="best" from="118793918#3" id="truck25" to="24305286#10" type="truck_truck" />
    <trip depart="3885.00" departLane="best" from="646591409" id="truck26" to="302109830#2" type="truck_truck" />
    <trip depart="2350.00" departLane="best" from="522768610#4" id="truck27" to="401494444#3" type="truck_truck" />
    <trip depart="19789.00" departLane="best" departSpeed="max" from="-24267146#1" id="truck28" to="329505240#0" type="truck_truck" />
    <trip depart="56503.00" departLane="best" from="326569902#5" id="truck29" to="314360433#4" type="truck_truck" />
    <trip depart="68187.00" departLane="best" from="24295246#0" id="truck30" to="321572180#8" type="truck_truck" />
    <trip depart="2303.00" departLane="best" from="129281458" id="truck31" to="279653481#1" type="truck_truck" />
    <trip depart="12784.00" departLane="best" from="293115460#15" id="truck32" to="522768610#8" type="truck_truck" />
    <trip depart="27351.00" departLane="best" departSpeed="max" from="435541876#0" id="truck33" to="24295136#4" type="truck_truck" />
    <trip depart="3558.00" departLane="best" departSpeed="max" from="436277095#0" id="truck34" to="435541876#1" type="truck_truck" />
    <trip depart="1885.00" departLane="best" from="24305223#1" id="truck35" to="321572180#8" type="truck_truck" />
    <trip depart="207.00" departLane="best" from="321544196#3" id="truck36" to="156115617#1" type="truck_truck" />
    <trip depart="4210.00" departLane="best" departSpeed="max" from="360771086#0" id="truck37" to="314360433#1" type="truck_truck" />
    <trip depart="12762.00" departLane="best" from="-133242880#1" id="truck38" to="24295250#1" type="truck_truck" />
    <trip depart="19148.00" departLane="best" departSpeed="max" from="-24295097#1" id="truck39" to="496739504#5" type="truck_truck" />
    <trip depart="26145.00" departLane="best" from="24305273#1" id="truck40" to="118793920" type="truck_truck" />
    <trip depart="55199.00" departLane="best" departSpeed="max" from="435541876#0" id="truck41" to="522768610#7" type="truck_truck" />
    <trip depart="1419.00" departLane="best" from="118793921#4" id="truck42" to="293115460#0" type="truck_truck" />
    <trip depart="9044.00" departLane="best" from="344084913#8" id="truck43" to="152762229#1" type="truck_truck" />
    <trip depart="3905.00" departLane="best" departSpeed="max" from="284927032#0" id="truck44" to="24295097#1" type="truck_truck" />
    <trip depart="13588.00" departLane="best" departSpeed="max" from="317137449#0" id="truck45" to="329505240#4" type="truck_truck" />
    <trip depart="19647.00" departLane="best" departSpeed="max" from="24295123" id="truck46" to="24295246#2" type="truck_truck" />
    <trip depart="29786.00" departLane="best" from="633508215#3" id="truck47" to="324601502#6" type="truck_truck" />
    <trip depart="8740.00" departLane="best" from="24295136#2" id="truck48" to="24295100#1" type="truck_truck" />
    <trip depart="15299.00" departLane="best" from="118793919#3" id="truck49" to="321572180#4" type="truck_truck" />
    <trip depart="575.00" departLane="best" from="24295136#8" id="truck50" to="324924047#2" type="truck_truck" />
    <trip depart="13525.00" departLane="best" from="436277095#9" id="truck51" to="317137449#7" type="truck_truck" />
    <trip depart="50999.00" departLane="best" from="293115460#9" id="truck52" to="344372307#1" type="truck_truck" />
    <trip depart="4595.00" departLane="best" departSpeed="max" from="284927032#0" id="truck53" to="284927029#2" type="truck_truck" />
    <trip depart="39188.00" departLane="best" from="329505240#5" id="truck54" to="326569837#1" type="truck_truck" />
    <trip depart="31303.00" departLane="best" from="571354729" id="truck55" to="118793923#8" type="truck_truck" />
    <trip depart="65406.00" departLane="best" from="279653481#1" id="truck56" to="24295254#6" type="truck_truck" />
    <trip depart="39818.00" departLane="best" from="401494444#2" id="truck57" to="24295136#2" type="truck_truck" />
    <trip depart="24933.00" departLane="best" from="24267146#0" id="truck58" to="284925148#0" type="truck_truck" />
    <trip depart="21209.00" departLane="best" from="284927029#1" id="truck59" to="24295139#4" type="truck_truck" />
    <trip depart="7708.00" departLane="best" from="24295139#4" id="truck60" to="496739504#3" type="truck_truck" />
    <trip depart="2656.00" departLane="best" from="317137449#1" id="truck61" to="118793918#3" type="truck_truck" />
    <trip depart="35190.00" departLane="best" from="522768610#3" id="truck63" to="496739504#4" type="truck_truck" />
    <trip depart="24561.00" departLane="best" departSpeed="max" from="401494444#0" id="truck64" to="156115617#7" type="truck_truck" />
    <trip depart="43981.00" departLane="best" departSpeed="max" from="312662578#0" id="truck65" to="24295097#1" type="truck_truck" />
    <trip depart="5878.00" departLane="best" departSpeed="max" from="279653481#0" id="truck66" to="118793920" type="truck_truck" />
    <trip depart="1629.00" departLane="best" from="24305370#1" id="truck67" to="633508215#4" type="truck_truck" />
    <trip depart="16919.00" departLane="best" from="24295147#1" id="truck68" to="344372307#0" type="truck_truck" />
    <trip depart="20677.00" departLane="best" from="293115460#16" id="truck69" to="24305370#1" type="truck_truck" />
    <trip depart="52005.00" departLane="best" from="496739504#5" id="truck70" to="633508215#4" type="truck_truck" />
    <trip depart="18841.00" departLane="best" from="317137449#12" id="truck71" to="329505082" type="truck_truck" />
    <trip depart="922.00" departLane="best" from="152762229#2" id="truck72" to="24295146#0" type="truck_truck" />
    <trip depart="27618.00" departLane="best" from="522768610#3" id="truck73" to="320249039#2" type="truck_truck" />
    <trip depart="9796.00" departLane="best" departSpeed="max" from="317137449#0" id="truck74" to="344084911" type="truck_truck" />
    <trip depart="47652.00" departLane="best" from="111940154#1" id="truck75" to="320249068#2" type="truck_truck" />
    <trip depart="6082.00" departLane="best" departSpeed="max" from="314360433#0" id="truck76" to="401494444#15" type="truck_truck" />
    <trip depart="23930.00" departLane="best" from="152762229#4" id="truck77" to="522768611#0" type="truck_truck" />
    <trip depart="9617.00" departLane="best" from="118793921#2" id="truck78" to="172580997" type="truck_truck" />
    <trip depart="4256.00" departLane="best" from="321396548#0" id="truck79" to="321544196#3" type="truck_truck" />
    <trip depart="6547.00" departLane="best" departSpeed="max" from="24295123" id="truck80" to="327607512#0" type="truck_truck" />
    <trip depart="17533.00" departLane="best" from="24305273#5" id="truck81" to="344084911" type="truck_truck" />
    <trip depart="62214.00" departLane="best" from="118793920" id="truck82" to="24295097#1" type="truck_truck" />
    <trip depart="4810.00" departLane="best" from="24305365#4" id="truck84" to="156115617#3" type="truck_truck" />
    <trip depart="10561.00" departLane="best" departSpeed="max" from="396425746" id="truck85" to="327607511#0" type="truck_truck" />
    <trip depart="303.00" departLane="best" from="321544196#4" id="truck86" to="633508215#4" type="truck_truck" />
    <trip depart="2337.00" departLane="best" departSpeed="max" from="325447816#0" id="truck87" to="-133242880#0" type="truck_truck" />
    <trip depart="778.00" departLane="best" from="360771086#6" id="truck88" to="24295146#2" type="truck_truck" />
    <trip depart="7330.00" departLane="best" departSpeed="max" from="325447816#0" id="truck89" to="522768610#3" type="truck_truck" />
    <trip depart="4294.00" departLane="best" departSpeed="max" from="151073587#0" id="truck90" to="151181510#1" type="truck_truck" />
    <trip depart="2048.00" departLane="best" from="329505240#0" id="truck92" to="24295097#0" type="truck_truck" />
    <trip depart="44636.00" departLane="best" departSpeed="max" from="312662578#0" id="truck93" to="436287845#0" type="truck_truck" />
    <trip depart="38826.00" departLane="best" departSpeed="max" from="401494444#0" id="truck94" to="118793923#7" type="truck_truck" />
    <trip depart="18164.00" departLane="best" departSpeed="max" from="284927032#0" id="truck95" to="24295139#3" type="truck_truck" />
    <trip depart="6095.00" departLane="best" from="-24267146#0" id="truck96" to="344084913#3" type="truck_truck" />
    <trip depart="57148.00" departLane="best" from="324601502#3" id="truck97" to="24295136#21" type="truck_truck" />
    <trip depart="3658.00" departLane="best" departSpeed="max" from="284927032#0" id="truck98" to="-133242880#0" type="truck_truck" />
    <trip depart="3461.00" departLane="best" from="118793921#0" id="truck99" to="436277095#3" type="truck_truck" />
    <trip depart="3742.00" departLane="best" from="435546424#1" id="truck100" to="314360433#8" type="truck_truck" />
    <trip depart="33198.00" departLane="best" from="24305273#1" id="truck101" to="436287845#0" type="truck_truck" />
    <trip depart="3991.00" departLane="best" departSpeed="max" from="435546424#0" id="truck102" to="24295097#1" type="truck_truck" />
    <trip depart="6944.00" departLane="best" from="24295139#4" id="truck103" to="118793923#8" type="truck_truck" />
    <trip depart="39314.00" departLane="best" departSpeed="max" from="360771086#0" id="truck104" to="436277095#3" type="truck_truck" />
    <trip depart="64288.00" departLane="best" departSpeed="max" from="-24295097#1" id="truck106" to="329505437#0" type="truck_truck" />
    <trip depart="24817.00" departLane="best" from="24305286#1" id="truck107" to="496739504#7" type="truck_truck" />
    <trip depart="12455.00" departLane="best" departSpeed="max" from="360771086#0" id="truck108" to="129281459#0" type="truck_truck" />
    <trip depart="4951.00" departLane="best" from="360771086#14" id="truck109" to="24295100#1" type="truck_truck" />
    <trip depart="13328.00" departLane="best" from="324601502#6" id="truck110" to="24305294#3" type="truck_truck" />
    <trip depart="12412.00" departLane="best" from="522768610#3" id="truck112" to="156115617#9" type="truck_truck" />
    <trip depart="17403.00" departLane="best" from="522768610#0" id="truck113" to="24295136#5" type="truck_truck" />
    <trip depart="80186.00" departLane="best" from="118793923#7" id="truck114" to="279653481#1" type="truck_truck" />
    <trip depart="15489.00" departLane="best" from="329505240#5" id="truck115" to="24295246#3" type="truck_truck" />
    <trip depart="54706.00" departLane="best" from="321544196#2" id="truck116" to="293115460#4" type="truck_truck" />
    <trip depart="29066.00" departLane="best" from="24305399#2" id="truck117" to="317137449#9" type="truck_truck" />
    <trip depart="81545.00" departLane="best" from="-133242880#1" id="truck119" to="496739504#4" type="truck_truck" />
    <trip depart="6149.00" departLane="best" departSpeed="max" from="317137449#0" id="truck120" to="329505082" type="truck_truck" />
    <trip depart="45818.00" departLane="best" from="24305273#4" id="truck121" to="401494444#15" type="truck_truck" />
    <trip depart="26389.00" departLane="best" from="329505240#1" id="truck122" to="24295146#2" type="truck_truck" />
    <trip depart="29489.00" departLane="best" from="279653481#1" id="truck123" to="24295146#0" type="truck_truck" />
    <trip depart="56240.00" departLane="best" departSpeed="max" from="133242880#0" id="truck124" to="24305370#0" type="truck_truck" />
    <trip depart="13188.00" departLane="best" departSpeed="max" from="435546424#0" id="truck125" to="321544196#2" type="truck_truck" />
    <trip depart="8864.00" departLane="best" departSpeed="max" from="284927032#0" id="truck126" to="320249039#2" type="truck_truck" />
    <trip depart="64519.00" departLane="best" departSpeed="max" from="325447816#0" id="truck127" to="284927029#2" type="truck_truck" />
    <trip depart="36514.00" departLane="best" from="293115457#2" id="truck128" to="24295097#1" type="truck_truck" />
    <trip depart="34449.00" departLane="best" from="293115460#9" id="truck129" to="436287845#0" type="truck_truck" />
    <trip depart="42065.00" departLane="best" from="360771086#14" id="truck130" to="156115617#9" type="truck_truck" />
    <trip depart="8852.00" departLane="best" from="118793921#4" id="truck131" to="293115460#6" type="truck_truck" />
    <trip depart="9811.00" departLane="best" from="360771086#7" id="truck132" to="344084911" type="truck_truck" />
    <trip depart="38026.00" departLane="best" from="326569902#0" id="truck133" to="24295100#1" type="truck_truck" />
    <trip depart="13608.00" departLane="best" departSpeed="max" from="24295123" id="truck134" to="-571354729" type="truck_truck" />
    <trip depart="2928.00" departLane="best" from="401494444#1" id="truck135" to="118793922#0" type="truck_truck" />
    <trip depart="41336.00" departLane="best" from="279653481#7" id="truck136" to="321572180#3" type="truck_truck" />
    <trip depart="30832.00" departLane="best" from="24295100#0" id="truck137" to="326569903#5" type="truck_truck" />
    <trip depart="1653.00" departLane="best" departSpeed="max" from="314360433#0" id="truck138" to="24295136#17" type="truck_truck" />
    <trip depart="43989.00" departLane="best" departSpeed="max" from="325447816#0" id="truck139" to="-133242880#0" type="truck_truck" />
    <trip depart="12341.00" departLane="best" from="156115617#2" id="truck140" to="522768610#8" type="truck_truck" />
    <trip depart="8495.00" departLane="best" from="314360433#7" id="truck141" to="118793918#3" type="truck_truck" />
    <trip depart="11520.00" departLane="best" from="24295139#4" id="truck142" to="401494444#15" type="truck_truck" />
    <trip depart="83683.00" departLane="best" from="293115460#17" id="truck143" to="360771086#19" type="truck_truck" />
    <trip depart="66862.00" departLane="best" from="321396548#0" id="truck144" to="522768610#8" type="truck_truck" />
    <trip depart="49386.00" departLane="best" from="435545285" id="truck145" to="321544188" type="truck_truck" />
    <trip depart="27254.00" departLane="best" from="329505240#1" id="truck146" to="293115460#18" type="truck_truck" />
    <trip depart="3850.00" departLane="best" departSpeed="max" from="396425746" id="truck147" to="314360433#9" type="truck_truck" />
    <trip depart="44111.00" departLane="best" departSpeed="max" from="435546424#0" id="truck148" to="329876536#2" type="truck_truck" />
    <trip depart="73291.00" departLane="best" from="302109830#0" id="truck149" to="24295136#21" type="truck_truck" />
    <trip depart="38387.00" departLane="best" from="24295139#3" id="truck150" to="321572180#7" type="truck_truck" />
    <trip depart="16483.00" departLane="best" from="344084913#8" id="truck151" to="293115460#8" type="truck_truck" />
    <trip depart="28793.00" departLane="best" from="321572180#6" id="truck152" to="24295139#2" type="truck_truck" />
    <trip depart="43563.00" departLane="best" from="118793921#1" id="truck153" to="24295139#7" type="truck_truck" />
    <trip depart="7443.00" departLane="best" from="24295246#2" id="truck154" to="24295250#1" type="truck_truck" />
    <trip depart="68073.00" departLane="best" departSpeed="max" from="317137449#0" id="truck155" to="152762229#4" type="truck_truck" />
    <trip depart="20016.00" departLane="best" from="24295136#20" id="truck156" to="326569903#4" type="truck_truck" />
    <trip depart="23626.00" departLane="best" from="284925148#0" id="truck157" to="24295097#1" type="truck_truck" />
    <trip depart="19442.00" departLane="best" from="24305399#0" id="truck158" to="-133242880#0" type="truck_truck" />
    <trip depart="2376.00" departLane="best" from="24305294#0" id="truck159" to="344084911" type="truck_truck" />
    <trip depart="17615.00" departLane="best" from="401494444#12" id="truck160" to="522768610#8" type="truck_truck" />
    <trip depart="42860.00" departLane="best" departSpeed="max" from="317137449#0" id="truck161" to="320601926#1" type="truck_truck" />
    <trip depart="29177.00" departLane="best" from="293115457#0" id="truck162" to="-684284130" type="truck_truck" />
    <trip depart="9154.00" departLane="best" from="24305286#10" id="truck163" to="326569837#5" type="truck_truck" />
    <trip depart="62181.00" departLane="best" from="293115460#7" id="truck164" to="152762229#0" type="truck_truck" />
    <trip depart="45804.00" departLane="best" departSpeed="max" from="279653481#0" id="truck165" to="317137449#17" type="truck_truck" />
    <trip depart="34419.00" departLane="best" departSpeed="max" from="-24295097#1" id="truck166" to="324601502#0" type="truck_truck" />
    <trip depart="15267.00" departLane="best" departSpeed="max" from="151073587#0" id="truck167" to="284927029#1" type="truck_truck" />
    <trip depart="16024.00" departLane="best" from="24295136#11" id="truck168" to="24295250#1" type="truck_truck" />
    <trip depart="32189.00" departLane="best" from="344084913#5" id="truck169" to="24305286#1" type="truck_truck" />
    <trip depart="54446.00" departLane="best" from="24295139#6" id="truck170" to="118793923#2" type="truck_truck" />
    <trip depart="47215.00" departLane="best" departSpeed="max" from="-24295097#1" id="truck171" to="314360433#5" type="truck_truck" />
    <trip depart="42625.00" departLane="best" from="684284130" id="truck172" to="24305223#3" type="truck_truck" />
    <trip depart="957.00" departLane="best" from="324924047#2" id="truck173" to="344084911" type="truck_truck" />
    <trip depart="33539.00" departLane="best" from="496739504#1" id="truck174" to="24267146#1" type="truck_truck" />
    <trip depart="66977.00" departLane="best" departSpeed="max" from="-24295097#1" id="truck175" to="156115617#1" type="truck_truck" />
    <trip depart="31159.00" departLane="best" departSpeed="max" from="133242880#0" id="truck176" to="324924047#2" type="truck_truck" />
    <trip depart="83351.00" departLane="best" from="317137449#17" id="truck177" to="24295100#1" type="truck_truck" />
    <trip depart="85830.00" departLane="best" from="360771086#7" id="truck178" to="522768611#1" type="truck_truck" />
    <trip depart="1134.00" departLane="best" from="24305273#3" id="truck179" to="326569837#4" type="truck_truck" />
    <trip depart="27622.00" departLane="best" from="496739504#5" id="truck180" to="24305294#0" type="truck_truck" />
    <trip depart="11931.00" departLane="best" from="326569903#5" id="truck181" to="321572180#2" type="truck_truck" />
    <trip depart="56197.00" departLane="best" from="118793923#4" id="truck182" to="344084913#4" type="truck_truck" />
    <trip depart="42651.00" departLane="best" from="401494444#1" id="truck183" to="320601926#1" type="truck_truck" />
    <trip depart="2540.00" departLane="best" departSpeed="max" from="133242880#0" id="truck184" to="633508215#3" type="truck_truck" />
    <trip depart="75855.00" departLane="best" departSpeed="max" from="360771086#0" id="truck185" to="24305223#1" type="truck_truck" />
    <trip depart="21035.00" departLane="best" departSpeed="max" from="284927032#0" id="truck186" to="24305282#0" type="truck_truck" />
    <trip depart="50279.00" departLane="best" from="314360433#2" id="truck187" to="24295254#6" type="truck_truck" />
    <trip depart="68751.00" departLane="best" from="401494444#1" id="truck188" to="360771086#3" type="truck_truck" />
    <trip depart="32225.00" departLane="best" from="118793923#5" id="truck189" to="522768611#0" type="truck_truck" />
    <trip depart="36164.00" departLane="best" from="327607339#2" id="truck190" to="279653481#1" type="truck_truck" />
    <trip depart="13452.00" departLane="best" from="329505437#4" id="truck191" to="522768611#1" type="truck_truck" />
    <trip depart="3204.00" departLane="best" departSpeed="max" from="317137449#0" id="truck192" to="293115457#3" type="truck_truck" />
    <trip depart="8047.00" departLane="best" from="284927032#3" id="truck193" to="329505240#5" type="truck_truck" />
    <trip depart="57103.00" departLane="best" from="24295246#0" id="truck194" to="401494444#15" type="truck_truck" />
    <trip depart="20273.00" departLane="best" departSpeed="max" from="396425746" id="truck195" to="118793923#4" type="truck_truck" />
    <trip depart="11543.00" departLane="best" departSpeed="max" from="435541876#0" id="truck196" to="24295136#17" type="truck_truck" />
    <trip depart="7878.00" departLane="best" from="293115460#5" id="truck197" to="321544178" type="truck_truck" />
    <trip depart="4904.00" departLane="best" from="401494444#1" id="truck198" to="172580997" type="truck_truck" />
    <trip depart="80778.00" departLane="best" from="24295136#11" id="truck199" to="360771086#15" type="truck_truck" />
    <trip depart="8054.00" departLane="best" departSpeed="max" from="326569955#0" id="truck201" to="24295139#3" type="truck_truck" />
    <trip depart="17116.00" departLane="best" departSpeed="max" from="312662578#0" id="truck202" to="344084911" type="truck_truck" />
    <trip depart="46823.00" departLane="best" departSpeed="max" from="312662578#0" id="truck203" to="360771086#13" type="truck_truck" />
    <trip depart="29696.00" departLane="best" from="118793923#0" id="truck204" to="24295100#1" type="truck_truck" />
    <trip depart="1574.00" departLane="best" departSpeed="max" from="326569955#0" id="truck205" to="24295246#0" type="truck_truck" />
    <trip depart="40307.00" departLane="best" from="320249068#0" id="truck206" to="284927029#2" type="truck_truck" />
    <trip depart="61504.00" departLane="best" departSpeed="max" from="315196302#0" id="truck207" to="24305399#1" type="truck_truck" />
    <trip depart="15251.00" departLane="best" from="24295139#6" id="truck208" to="151181510#1" type="truck_truck" />
    <trip depart="45359.00" departLane="best" from="24295097#0" id="truck209" to="151181510#1" type="truck_truck" />
    <trip depart="76277.00" departLane="best" departSpeed="max" from="312662578#0" id="truck210" to="329505240#2" type="truck_truck" />
    <trip depart="3005.00" departLane="best" from="522768610#6" id="truck211" to="302109830#0" type="truck_truck" />
    <trip depart="444.00" departLane="best" from="24295254#4" id="truck212" to="118793923#8" type="truck_truck" />
    <trip depart="4009.00" departLane="best" departSpeed="max" from="315196302#0" id="truck213" to="24295139#2" type="truck_truck" />
    <trip depart="2280.00" departLane="best" departSpeed="max" from="326569955#0" id="truck214" to="152762229#0" type="truck_truck" />
    <trip depart="6525.00" departLane="best" from="401494444#5" id="truck215" to="293115460#11" type="truck_truck" />
    <trip depart="9180.00" departLane="best" from="401494444#8" id="truck216" to="317137449#8" type="truck_truck" />
    <trip depart="39180.00" departLane="best" from="156115617#6" id="truck217" to="118793918#4" type="truck_truck" />
    <trip depart="3193.00" departLane="best" from="369135366#0" id="truck218" to="24305294#3" type="truck_truck" />
    <trip depart="33070.00" departLane="best" from="118793920" id="truck219" to="321572180#3" type="truck_truck" />
    <trip depart="58531.00" departLane="best" from="633508215#3" id="truck220" to="151181510#1" type="truck_truck" />
    <trip depart="1658.00" departLane="best" from="360771086#10" id="truck221" to="24295100#1" type="truck_truck" />
    <trip depart="29465.00" departLane="best" from="329876536#1" id="truck222" to="522768610#7" type="truck_truck" />
    <trip depart="17337.00" departLane="best" from="24295136#1" id="truck223" to="24295097#1" type="truck_truck" />
    <trip depart="1335.00" departLane="best" departSpeed="max" from="325447816#0" id="truck224" to="156115617#3" type="truck_truck" />
    <trip depart="18226.00" departLane="best" from="156115617#1" id="truck225" to="118793922#3" type="truck_truck" />
    <trip depart="63869.00" departLane="best" from="-24267146#0" id="truck226" to="284925148#1" type="truck_truck" />
    <trip depart="211.00" departLane="best" from="321396548#0" id="truck227" to="24295139#7" type="truck_truck" />
    <trip depart="48602.00" departLane="best" from="24295136#20" id="truck228" to="327607511#1" type="truck_truck" />
    <trip depart="7237.00" departLane="best" from="326569903#4" id="truck229" to="496739504#3" type="truck_truck" />
    <trip depart="2440.00" departLane="best" from="360771086#1" id="truck230" to="321572180#1" type="truck_truck" />
    <trip depart="77087.00" departLane="best" departSpeed="max" from="325447816#0" id="truck231" to="522768610#0" type="truck_truck" />
    <trip depart="38508.00" departLane="best" departSpeed="max" from="284927032#0" id="truck232" to="314360433#7" type="truck_truck" />
    <trip depart="12094.00" departLane="best" departSpeed="max" from="24305223#0" id="truck234" to="151181510#1" type="truck_truck" />
    <trip depart="19394.00" departLane="best" from="436478051#2" id="truck235" to="293115460#18" type="truck_truck" />
    <trip depart="10508.00" departLane="best" departSpeed="max" from="314360433#0" id="truck236" to="118793923#1" type="truck_truck" />
    <trip depart="67063.00" departLane="best" from="118793922#3" id="truck237" to="522768611#1" type="truck_truck" />
    <trip depart="36408.00" departLane="best" departSpeed="max" from="396425746" id="truck238" to="317137449#9" type="truck_truck" />
    <trip depart="25525.00" departLane="best" from="-646591409" id="truck239" to="344084911" type="truck_truck" />
    <trip depart="41994.00" departLane="best" from="293115460#8" id="truck240" to="324601502#6" type="truck_truck" />
    <trip depart="81582.00" departLane="best" departSpeed="max" from="436277095#0" id="truck241" to="172580997" type="truck_truck" />
    <trip depart="27132.00" departLane="best" departSpeed="max" from="312662578#0" id="truck242" to="118793923#6" type="truck_truck" />
    <trip depart="57571.00" departLane="best" from="24305286#9" id="truck243" to="24295254#4" type="truck_truck" />
    <trip depart="35429.00" departLane="best" from="24305286#0" id="truck244" to="326569903#4" type="truck_truck" />
    <trip depart="45580.00" departLane="best" from="293115460#16" id="truck246" to="24295246#4" type="truck_truck" />
    <trip depart="19236.00" departLane="best" from="24305282#0" id="truck247" to="522768611#1" type="truck_truck" />
    <trip depart="6655.00" departLane="best" from="633508213#1" id="truck248" to="324601502#7" type="truck_truck" />
    <trip depart="32220.00" departLane="best" departSpeed="max" from="317137449#0" id="truck249" to="24305365#4" type="truck_truck" />
    <trip depart="64674.00" departLane="best" from="344084913#3" id="truck250" to="321572180#1" type="truck_truck" />
    <trip depart="5790.00" departLane="best" from="344084913#4" id="truck251" to="24295097#0" type="truck_truck" />
    <trip depart="8709.00" departLane="best" from="317137449#1" id="truck252" to="496739504#5" type="truck_truck" />
    <trip depart="18724.00" departLane="best" departSpeed="max" from="133242880#0" id="truck253" to="571354729" type="truck_truck" />