<routes xmlns:xsi="http://www.w3.org/2001/XMLSchema-instance" xsi:noNamespaceSchemaLocation="http://sumo.dlr.de/xsd/routes_file.xsd">
    <vType id="truck_truck" vClass="truck" />
    <trip depart="35837.00" departLane="best" departSpeed="max" from="435546424#0" id="truck0" to="118793923#4" type="truck_truck" />
    <trip depart="28041.00" departLane="best" from="24295136#14" id="truck1" to="293115460#18" type="truck_truck" />
    <trip depart="59201.00" departLane="best" from="360771086#20" id="truck3" to="327607339#0" type="truck_truck" />
    <trip depart="49318.00" departLane="best" from="496739504#5" id="truck4" to="24295254#6" type="truck_truck" />
    <trip depart="60516.00" departLane="best" from="118793923#0" id="truck5" to="118793923#8" type="truck_truck" />
    <trip depart="11208.00" departLane="best" departSpeed="max" from="401494444#0" id="truck6" to="320601926#1" type="truck_truck" />
    <trip depart="5267.00" departLane="best" from="360771086#21" id="truck7" to="329505240#4" type="truck_truck" />
    <trip depart="19118.00" departLane="best" from="315196302#1" id="truck8" to="571354729" type="truck_truck" />
    <trip depart="38857.00" departLane="best" departSpeed="max" from="396425746" id="truck10" to="321544196#3" type="truck_truck" />
    <trip depart="37688.00" departLane="best" from="401494444#2" id="truck11" to="320249039#0" type="truck_truck" />
    <trip depart="82389.00" departLane="best" from="327607339#1" id="truck12" to="111940154#2" type="truck_truck" />
    <trip depart="60322.00" departLane="best" from="118793923#3" id="truck13" to="24295139#4" type="truck_truck" />
    <trip depart="16632.00" departLane="best" from="324601502#1" id="truck14" to="24305273#5" type="truck_truck" />
    <trip depart="19388.00" departLane="best" from="24305365#4" id="truck15" to="24295097#1" type="truck_truck" />
    <trip depart="40526.00" departLane="best" from="156115617#0" id="truck16" to="329505240#4" type="truck_truck" />
    <trip depart="8442.00" departLane="best" from="633508213#5" id="truck17" to="321572180#8" type="truck_truck" />
    <trip depart="7663.00" departLane="best" from="317137449#12" id="truck18" to="326569902#4" type="truck_truck" />
    <trip depart="80338.00" departLane="best" from="24295136#11" id="truck19" to="522768610#5" type="truck_truck" />
    <trip depart="76649.00" departLane="best" departSpeed="max" from="435541876#0" id="truck20" to="24295246#4" type="truck_truck" />
    <trip depart="61130.00" departLane="best" departSpeed="max" from="325447816#0" id="truck21" to="24305294#0" type="truck_truck" />
    <trip depart="61358.00" departLane="best" departSpeed="max" from="436277095#0" id="truck22" to="284925148#1" type="truck_truck" />
    <trip depart="29998.00" departLane="best" from="646591409" id="truck23" to="293115460#3" type="truck_truck" />
    <trip depart="66436.00" departLane="best" from="360771086#10" id="truck24" to="24305370#1" type="truck_truck" />
    <trip depart="62355.00" departLane="best" from="118793918#3" id="truck25" to="24305286#10" type="truck_truck" />
    <trip depart="81097.00" departLane="best" from="646591409" id="truck26" to="302109830#2" type="truck_truck" />
    <trip depart="59676.00" departLane="best" from="522768610#4" id="truck27" to="401494444#3" type="truck_truck" />
    <trip depart="1094.00" departLane="best" departSpeed="max" from="-24267146#1" id="truck28" to="329505240#0" type="truck_truck" />
    <trip depart="36074.00" departLane="best" from="326569902#5" id="truck29" to="314360433#4" type="truck_truck" />
    <trip depart="1363.00" departLane="best" from="24295246#0" id="truck30" to="321572180#8" type="truck_truck" />
    <trip depart="13736.00" departLane="best" from="129281458" id="truck31" to="279653481#1" type="truck_truck" />
    <trip depart="55208.00" departLane="best" from="293115460#15" id="truck32" to="522768610#8" type="truck_truck" />
    <trip depart="13740.00" departLane="best" departSpeed="max" from="435541876#0" id="truck33" to="24295136#4" type="truck_truck" />
    <trip depart="71398.00" departLane="best" departSpeed="max" from="436277095#0" id="truck34" to="435541876#1" type="truck_truck" />
    <trip depart="39524.00" departLane="best" from="24305223#1" id="truck35" to="321572180#8" type="truck_truck" />
    <trip depart="57604.00" departLane="best" from="321544196#3" id="truck36" to="156115617#1" type="truck_truck" />
    <trip depart="53914.00" departLane="best" departSpeed="max" from="360771086#0" id="truck37" to="314360433#1" type="truck_truck" />
    <trip depart="32160.00" departLane="best" from="-133242880#1" id="truck38" to="24295250#1" type="truck_truck" />
    <trip depart="38754.00" departLane="best" departSpeed="max" from="-24295097#1" id="truck39" to="496739504#5" type="truck_truck" />
    <trip depart="5584.00" departLane="best" from="24305273#1" id="truck40" to="118793920" type="truck_truck" />
    <trip depart="24320.00" departLane="best" departSpeed="max" from="435541876#0" id="truck41" to="522768610#7" type="truck_truck" />
    <trip depart="37848.00" departLane="best" from="118793921#4" id="truck42" to="293115460#0" type="truck_truck" />
    <trip depart="68116.00" departLane="best" from="344084913#8" id="truck43" to="152762229#1" type="truck_truck" />
    <trip depart="71619.00" departLane="best" departSpeed="max" from="284927032#0" id="truck44" to="24295097#1" type="truck_truck" />
    <trip depart="73501.00" departLane="best" departSpeed="max" from="317137449#0" id="truck45" to="329505240#4" type="truck_truck" />
    <trip depart="16517.00" departLane="best" departSpeed="max" from="24295123" id="truck46" to="24295246#2" type="truck_truck" />
    <trip depart="66575.00" departLane="best" from="633508215#3" id="truck47" to="324601502#6" type="truck_truck" />
    <trip depart="72248.00" departLane="best" from="24295136#2" id="truck48" to="24295100#1" type="truck_truck" />
    <trip depart="25407.00" departLane="best" from="118793919#3" id="truck49" to="321572180#4" type="truck_truck" />
    <trip depart="63345.00" departLane="best" from="24295136#8" id="truck50" to="324924047#2" type="truck_truck" />
    <trip depart="64314.00" departLane="best" from="436277095#9" id="truck51" to="317137449#7" type="truck_truck" />
    <trip depart="43413.00" departLane="best" from="293115460#9" id="truck52" to="344372307#1" type="truck_truck" />
    <trip depart="13693.00" departLane="best" departSpeed="max" from="284927032#0" id="truck53" to="284927029#2" type="truck_truck" />
    <trip depart="61148.00" departLane="best" from="329505240#5" id="truck54" to="326569837#1" type="truck_truck" />
    <trip depart="77449.00" departLane="best" from="571354729" id="truck55" to="118793923#8" type="truck_truck" />
    <trip depart="69782.00" departLane="best" from="279653481#1" id="truck56" to="24295254#6" type="truck_truck" />
    <trip depart="22555.00" departLane="best" from="401494444#2" id="truck57" to="24295136#2" type="truck_truck" />
    <trip depart="13497.00" departLane="best" from="24267146#0" id="truck58" to="284925148#0" type="truck_truck" />
    <trip depart="31037.00" departLane="best" from="284927029#1" id="truck59" to="24295139#4" type="truck_truck" />
    <trip depart="26342.00" departLane="best" from="24295139#4" id="truck60" to="496739504#3" type="truck_truck" />
    <trip depart="13497.00" departLane="best" from="317137449#1" id="truck61" to="118793918#3" type="truck_truck" />
    <trip depart="54901.00" departLane="best" from="522768610#3" id="truck63" to="496739504#4" type="truck_truck" />
    <trip depart="85341.00" departLane="best" departSpeed="max" from="401494444#0" id="truck64" to="156115617#7" type="truck_truck" />
    <trip depart="57394.00" departLane="best" departSpeed="max" from="312662578#0" id="truck65" to="24295097#1" type="truck_truck" />
    <trip depart="23451.00" departLane="best" departSpeed="max" from="279653481#0" id="truck66" to="118793920" type="truck_truck" />
    <trip depart="12369.00" departLane="best" from="24305370#1" id="truck67" to="633508215#4" type="truck_truck" />
    <trip depart="46623.00" departLane="best" from="24295147#1" id="truck68" to="344372307#0" type="truck_truck" />
    <trip depart="8242.00" departLane="best" from="293115460#16" id="truck69" to="24305370#1" type="truck_truck" />
    <trip depart="77880.00" departLane="best" from="496739504#5" id="truck70" to="633508215#4" type="truck_truck" />
    <trip depart="21205.00" departLane="best" from="317137449#12" id="truck71" to="329505082" type="truck_truck" />
    <trip depart="30045.00" departLane="best" from="152762229#2" id="truck72" to="24295146#0" type="truck_truck" />
    <trip depart="49274.00" departLane="best" from="522768610#3" id="truck73" to="320249039#2" type="truck_truck" />
    <trip depart="44077.00" departLane="best" departSpeed="max" from="317137449#0" id="truck74" to="344084911" type="truck_truck" />
    <trip depart="34182.00" departLane="best" from="111940154#1" id="truck75" to="320249068#2" type="truck_truck" />
    <trip depart="80204.00" departLane="best" departSpeed="max" from="314360433#0" id="truck76" to="401494444#15" type="truck_truck" />
    <trip depart="12247.00" departLane="best" from="152762229#4" id="truck77" to="522768611#0" type="truck_truck" />
    <trip depart="17825.00" departLane="best" from="118793921#2" id="truck78" to="172580997" type="truck_truck" />
    <trip depart="27766.00" departLane="best" from="321396548#0" id="truck79" to="321544196#3" type="truck_truck" />
    <trip depart="15755.00" departLane="best" departSpeed="max" from="24295123" id="truck80" to="327607512#0" type="truck_truck" />
    <trip depart="20664.00" departLane="best" from="24305273#5" id="truck81" to="344084911" type="truck_truck" />
    <trip depart="75149.00" departLane="best" from="118793920" id="truck82" to="24295097#1" type="truck_truck" />
    <trip depart="21216.00" departLane="best" from="24305365#4" id="truck84" to="156115617#3" type="truck_truck" />
    <trip depart="44259.00" departLane="best" departSpeed="max" from="396425746" id="truck85" to="327607511#0" type="truck_truck" />
    <trip depart="73833.00" departLane="best" from="321544196#4" id="truck86" to="633508215#4" type="truck_truck" />
    <trip depart="42856.00" departLane="best" departSpeed="max" from="325447816#0" id="truck87" to="-133242880#0" type="truck_truck" />
    <trip depart="22122.00" departLane="best" from="360771086#6" id="truck88" to="24295146#2" type="truck_truck" />
    <trip depart="26615.00" departLane="best" departSpeed="max" from="325447816#0" id="truck89" to="522768610#3" type="truck_truck" />
    <trip depart="64938.00" departLane="best" departSpeed="max" from="151073587#0" id="truck90" to="151181510#1" type="truck_truck" />
    <trip depart="73144.00" departLane="best" from="329505240#0" id="truck92" to="24295097#0" type="truck_truck" />
    <trip depart="81181.00" departLane="best" departSpeed="max" from="312662578#0" id="truck93" to="436287845#0" type="truck_truck" />
    <trip depart="57405.00" departLane="best" departSpeed="max" from="401494444#0" id="truck94" to="118793923#7" type="truck_truck" />
    <trip depart="19064.00" departLane="best" departSpeed="max" from="284927032#0" id="truck95" to="24295139#3" type="truck_truck" />
    <trip depart="61912.00" departLane="best" from="-24267146#0" id="truck96" to="344084913#3" type="truck_truck" />
    <trip depart="58841.00" departLane="best" from="324601502#3" id="truck97" to="24295136#21" type="truck_truck" />
    <trip depart="51466.00" departLane="best" departSpeed="max" from="284927032#0" id="truck98" to="-133242880#0" type="truck_truck" />
    <trip depart="32063.00" departLane="best" from="118793921#0" id="truck99" to="436277095#3" type="truck_truck" />
    <trip depart="54610.00" departLane="best" from="435546424#1" id="truck100" to="314360433#8" type="truck_truck" />
    <trip depart="81144.00" departLane="best" from="24305273#1" id="truck101" to="436287845#0" type="truck_truck" />
    <trip depart="51336.00" departLane="best" departSpeed="max" from="435546424#0" id="truck102" to="24295097#1" type="truck_truck" />
    <trip depart="43245.00" departLane="best" from="24295139#4" id="truck103" to="118793923#8" type="truck_truck" />
    <trip depart="77541.00" departLane="best" departSpeed="max" from="360771086#0" id="truck104" to="436277095#3" type="truck_truck" />
    <trip depart="65259.00" departLane="best" departSpeed="max" from="-24295097#1" id="truck106" to="329505437#0" type="truck_truck" />
    <trip depart="85052.00" departLane="best" from="24305286#1" id="truck107" to="496739504#7" type="truck_truck" />
    <trip depart="55098.00" departLane="best" departSpeed="max" from="360771086#0" id="truck108" to="129281459#0" type="truck_truck" />
    <trip depart="73394.00" departLane="best" from="360771086#14" id="truck109" to="24295100#1" type="truck_truck" />
    <trip depart="10913.00" departLane="best" from="324601502#6" id="truck110" to="24305294#3" type="truck_truck" />
    <trip depart="4024.00" departLane="best" from="522768610#3" id="truck112" to="156115617#9" type="truck_truck" />
    <trip depart="1888.00" departLane="best" from="522768610#0" id="truck113" to="24295136#5" type="truck_truck" />
    <trip depart="63447.00" departLane="best" from="118793923#7" id="truck114" to="279653481#1" type="truck_truck" />
    <trip depart="63007.00" departLane="best" from="329505240#5" id="truck115" to="24295246#3" type="truck_truck" />
    <trip depart="14322.00" departLane="best" from="321544196#2" id="truck116" to="293115460#4" type="truck_truck" />
    <trip depart="4988.00" departLane="best" from="24305399#2" id="truck117" to="317137449#9" type="truck_truck" />
    <trip depart="34688.00" departLane="best" from="-133242880#1" id="truck119" to="496739504#4" type="truck_truck" />
    <trip depart="23876.00" departLane="best" departSpeed="max" from="317137449#0" id="truck120" to="329505082" type="truck_truck" />
    <trip depart="82062.00" departLane="best" from="24305273#4" id="truck121" to="401494444#15" type="truck_truck" />
    <trip depart="12984.00" departLane="best" from="329505240#1" id="truck122" to="24295146#2" type="truck_truck" />
    <trip depart="74462.00" departLane="best" from="279653481#1" id="truck123" to="24295146#0" type="truck_truck" />
    <trip depart="59064.00" departLane="best" departSpeed="max" from="133242880#0" id="truck124" to="24305370#0" type="truck_truck" />
    <trip depart="3292.00" departLane="best" departSpeed="max" from="435546424#0" id="truck125" to="321544196#2" type="truck_truck" />
    <trip depart="78306.00" departLane="best" departSpeed="max" from="284927032#0" id="truck126" to="320249039#2" type="truck_truck" />
    <trip depart="2260.00" departLane="best" departSpeed="max" from="325447816#0" id="truck127" to="284927029#2" type="truck_truck" />
    <trip depart="29792.00" departLane="best" from="293115457#2" id="truck128" to="24295097#1" type="truck_truck" />
    <trip depart="28436.00" departLane="best" from="293115460#9" id="truck129" to="436287845#0" type="truck_truck" />
    <trip depart="39487.00" departLane="best" from="360771086#14" id="truck130" to="156115617#9" type="truck_truck" />
    <trip depart="43012.00" departLane="best" from="118793921#4" id="truck131" to="293115460#6" type="truck_truck" />
    <trip depart="27577.00" departLane="best" from="360771086#7" id="truck132" to="344084911" type="truck_truck" />
    <trip depart="85192.00" departLane="best" from="326569902#0" id="truck133" to="24295100#1" type="truck_truck" />
    <trip depart="79644.00" departLane="best" departSpeed="max" from="24295123" id="truck134" to="-571354729" type="truck_truck" />
    <trip depart="4687.00" departLane="best" from="401494444#1" id="truck135" to="118793922#0" type="truck_truck" />
    <trip depart="57193.00" departLane="best" from="279653481#7" id="truck136" to="321572180#3" type="truck_truck" />
    <trip depart="76537.00" departLane="best" from="24295100#0" id="truck137" to="326569903#5" type="truck_truck" />
    <trip depart="81872.00" departLane="best" departSpeed="max" from="314360433#0" id="truck138" to="24295136#17" type="truck_truck" />
    <trip depart="32881.00" departLane="best" departSpeed="max" from="325447816#0" id="truck139" to="-133242880#0" type="truck_truck" />
    <trip depart="73032.00" departLane="best" from="156115617#2" id="truck140" to="522768610#8" type="truck_truck" />
    <trip depart="30317.00" departLane="best" from="314360433#7" id="truck141" to="118793918#3" type="truck_truck" />
    <trip depart="39640.00" departLane="best" from="24295139#4" id="truck142" to="401494444#15" type="truck_truck" />
    <trip depart="81599.00" departLane="best" from="293115460#17" id="truck143" to="360771086#19" type="truck_truck" />
    <trip depart="1717.00" departLane="best" from="321396548#0" id="truck144" to="522768610#8" type="truck_truck" />
    <trip depart="34435.00" departLane="best" from="435545285" id="truck145" to="321544188" type="truck_truck" />
    <trip depart="25072.00" departLane="best" from="329505240#1" id="truck146" to="293115460#18" type="truck_truck" />
    <trip depart="30041.00" departLane="best" departSpeed="max" from="396425746" id="truck147" to="314360433#9" type="truck_truck" />
    <trip depart="33157.00" departLane="best" departSpeed="max" from="435546424#0" id="truck148" to="329876536#2" type="truck_truck" />
    <trip depart="5884.00" departLane="best" from="302109830#0" id="truck149" to="24295136#21" type="truck_truck" />
    <trip depart="14219.00" departLane="best" from="24295139#3" id="truck150" to="321572180#7" type="truck_truck" />
    <trip depart="21056.00" departLane="best" from="344084913#8" id="truck151" to="293115460#8" type="truck_truck" />
    <trip depart="44650.00" departLane="best" from="321572180#6" id="truck152" to="24295139#2" type="truck_truck" />
    <trip depart="14208.00" departLane="best" from="118793921#1" id="truck153" to="24295139#7" type="truck_truck" />
    <trip depart="28700.00" departLane="best" from="24295246#2" id="truck154" to="24295250#1" type="truck_truck" />
    <trip depart="27500.00" departLane="best" departSpeed="max" from="317137449#0" id="truck155" to="152762229#4" type="truck_truck" />
    <trip depart="85342.00" departLane="best" from="24295136#20" id="truck156" to="326569903#4" type="truck_truck" />
    <trip depart="42240.00" departLane="best" from="284925148#0" id="truck157" to="24295097#1" type="truck_truck" />
    <trip depart="19921.00" departLane="best" from="24305399#0" id="truck158" to="-133242880#0" type="truck_truck" />
    <trip depart="20299.00" departLane="best" from="24305294#0" id="truck159" to="344084911" type="truck_truck" />
    <trip depart="6285.00" departLane="best" from="401494444#12" id="truck160" to="522768610#8" type="truck_truck" />
    <trip depart="69924.00" departLane="best" departSpeed="max" from="317137449#0" id="truck161" to="320601926#1" type="truck_truck" />
    <trip depart="45171.00" departLane="best" from="293115457#0" id="truck162" to="-684284130" type="truck_truck" />
    <trip depart="83550.00" departLane="best" from="24305286#10" id="truck163" to="326569837#5" type="truck_truck" />
    <trip depart="45588.00" departLane="best" from="293115460#7" id="truck164" to="152762229#0" type="truck_truck" />
    <trip depart="67811.00" departLane="best" departSpeed="max" from="279653481#0" id="truck165" to="317137449#17" type="truck_truck" />
    <trip depart="12772.00" departLane="best" departSpeed="max" from="-24295097#1" id="truck166" to="324601502#0" type="truck_truck" />
    <trip depart="52824.00" departLane="best" departSpeed="max" from="151073587#0" id="truck167" to="284927029#1" type="truck_truck" />
    <trip depart="77460.00" departLane="best" from="24295136#11" id="truck168" to="24295250#1" type="truck_truck" />
    <trip depart="61031.00" departLane="best" from="344084913#5" id="truck169" to="24305286#1" type="truck_truck" />
    <trip depart="33941.00" departLane="best" from="24295139#6" id="truck170" to="118793923#2" type="truck_truck" />
    <trip depart="10385.00" departLane="best" departSpeed="max" from="-24295097#1" id="truck171" to="314360433#5" type="truck_truck" />
    <trip depart="76911.00" departLane="best" from="684284130" id="truck172" to="24305223#3" type="truck_truck" />
    <trip depart="52440.00" departLane="best" from="324924047#2" id="truck173" to="344084911" type="truck_truck" />
    <trip depart="17934.00" departLane="best" from="496739504#1" id="truck174" to="24267146#1" type="truck_truck" />
    <trip depart="81374.00" departLane="best" departSpeed="max" from="-24295097#1" id="truck175" to="156115617#1" type="truck_truck" />
    <trip depart="11429.00" departLane="best" departSpeed="max" from="133242880#0" id="truck176" to="324924047#2" type="truck_truck" />
    <trip depart="12746.00" departLane="best" from="317137449#17" id="truck177" to="24295100#1" type="truck_truck" />
    <trip depart="26505.00" departLane="best" from="360771086#7" id="truck178" to="522768611#1" type="truck_truck" />
    <trip depart="82339.00" departLane="best" from="24305273#3" id="truck179" to="326569837#4" type="truck_truck" />
    <trip depart="82078.00" departLane="best" from="496739504#5" id="truck180" to="24305294#0" type="truck_truck" />
    <trip depart="69153.00" departLane="best" from="326569903#5" id="truck181" to="321572180#2" type="truck_truck" />
    <trip depart="36013.00" departLane="best" from="118793923#4" id="truck182" to="344084913#4" type="truck_truck" />
    <trip depart="31116.00" departLane="best" from="401494444#1" id="truck183" to="320601926#1" type="truck_truck" />
    <trip depart="83573.00" departLane="best" departSpeed="max" from="133242880#0" id="truck184" to="633508215#3" type="truck_truck" />
    <trip depart="56236.00" departLane="best" departSpeed="max" from="360771086#0" id="truck185" to="24305223#1" type="truck_truck" />
    <trip depart="24016.00" departLane="best" departSpeed="max" from="284927032#0" id="truck186" to="24305282#0" type="truck_truck" />
    <trip depart="56982.00" departLane="best" from="314360433#2" id="truck187" to="24295254#6" type="truck_truck" />
    <trip depart="52916.00" departLane="best" from="401494444#1" id="truck188" to="360771086#3" type="truck_truck" />
    <trip depart="10579.00" departLane="best" from="118793923#5" id="truck189" to="522768611#0" type="truck_truck" />
    <trip depart="73966.00" departLane="best" from="327607339#2" id="truck190" to="279653481#1" type="truck_truck" />
    <trip depart="81178.00" departLane="best" from="329505437#4" id="truck191" to="522768611#1" type="truck_truck" />
    <trip depart="79069.00" departLane="best" departSpeed="max" from="317137449#0" id="truck192" to="293115457#3" type="truck_truck" />
    <trip depart="36574.00" departLane="best" from="284927032#3" id="truck193" to="329505240#5" type="truck_truck" />
    <trip depart="49250.00" departLane="best" from="24295246#0" id="truck194" to="401494444#15" type="truck_truck" />
    <trip depart="60882.00" departLane="best" departSpeed="max" from="396425746" id="truck195" to="118793923#4" type="truck_truck" />
    <trip depart="4691.00" departLane="best" departSpeed="max" from="435541876#0" id="truck196" to="24295136#17" type="truck_truck" />
    <trip depart="64881.00" departLane="best" from="293115460#5" id="truck197" to="321544178" type="truck_truck" />
    <trip depart="65796.00" departLane="best" from="401494444#1" id="truck198" to="172580997" type="truck_truck" />
    <trip depart="10563.00" departLane="best" from="24295136#11" id="truck199" to="360771086#15" type="truck_truck" />
    <trip depart="70086.00" departLane="best" departSpeed="max" from="326569955#0" id="truck201" to="24295139#3" type="truck_truck" />
    <trip depart="35710.00" departLane="best" departSpeed="max" from="312662578#0" id="truck202" to="344084911" type="truck_truck" />
    <trip depart="4661.00" departLane="best" departSpeed="max" from="312662578#0" id="truck203" to="360771086#13" type="truck_truck" />
    <trip depart="54367.00" departLane="best" from="118793923#0" id="truck204" to="24295100#1" type="truck_truck" />
    <trip depart="72818.00" departLane="best" departSpeed="max" from="326569955#0" id="truck205" to="24295246#0" type="truck_truck" />
    <trip depart="80269.00" departLane="best" from="320249068#0" id="truck206" to="284927029#2" type="truck_truck" />
    <trip depart="56809.00" departLane="best" departSpeed="max" from="315196302#0" id="truck207" to="24305399#1" type="truck_truck" />
    <trip depart="12646.00" departLane="best" from="24295139#6" id="truck208" to="151181510#1" type="truck_truck" />
    <trip depart="69310.00" departLane="best" from="24295097#0" id="truck209" to="151181510#1" type="truck_truck" />
    <trip depart="53546.00" departLane="best" departSpeed="max" from="312662578#0" id="truck210" to="329505240#2" type="truck_truck" />
    <trip depart="68217.00" departLane="best" from="522768610#6" id="truck211" to="302109830#0" type="truck_truck" />
    <trip depart="25143.00" departLane="best" from="24295254#4" id="truck212" to="118793923#8" type="truck_truck" />
    <trip depart="78825.00" departLane="best" departSpeed="max" from="315196302#0" id="truck213" to="24295139#2" type="truck_truck" />
    <trip depart="85546.00" departLane="best" departSpeed="max" from="326569955#0" id="truck214" to="152762229#0" type="truck_truck" />
    <trip depart="32570.00" departLane="best" from="401494444#5" id="truck215" to="293115460#11" type="truck_truck" />
    <trip depart="57068.00" departLane="best" from="401494444#8" id="truck216" to="317137449#8" type="truck_truck" />
    <trip depart="33476.00" departLane="best" from="156115617#6" id="truck217" to="118793918#4" type="truck_truck" />
    <trip depart="67896.00" departLane="best" from="369135366#0" id="truck218" to="24305294#3" type="truck_truck" />
    <trip depart="72859.00" departLane="best" from="118793920" id="truck219" to="321572180#3" type="truck_truck" />
    <trip depart="85411.00" departLane="best" from="633508215#3" id="truck220" to="151181510#1" type="truck_truck" />
    <trip depart="48992.00" departLane="best" from="360771086#10" id="truck221" to="24295100#1" type="truck_truck" />
    <trip depart="45826.00" departLane="best" from="329876536#1" id="truck222" to="522768610#7" type="truck_truck" />
    <trip depart="66628.00" departLane="best" from="24295136#1" id="truck223" to="24295097#1" type="truck_truck" />
    <trip depart="23576.00" departLane="best" departSpeed="max" from="325447816#0" id="truck224" to="156115617#3" type="truck_truck" />
    <trip depart="45289.00" departLane="best" from="156115617#1" id="truck225" to="118793922#3" type="truck_truck" />
    <trip depart="33539.00" departLane="best" from="-24267146#0" id="truck226" to="284925148#1" type="truck_truck" />
    <trip depart="38431.00" departLane="best" from="321396548#0" id="truck227" to="24295139#7" type="truck_truck" />
    <trip depart="18402.00" departLane="best" from="24295136#20" id="truck228" to="327607511#1" type="truck_truck" />
    <trip depart="23112.00" departLane="best" from="326569903#4" id="truck229" to="496739504#3" type="truck_truck" />
    <trip depart="75522.00" departLane="best" from="360771086#1" id="truck230" to="321572180#1" type="truck_truck" />
    <trip depart="4115.00" departLane="best" departSpeed="max" from="325447816#0" id="truck231" to="522768610#0" type="truck_truck" />
    <trip depart="55730.00" departLane="best" departSpeed="max" from="284927032#0" id="truck232" to="314360433#7" type="truck_truck" />
    <trip depart="40314.00" departLane="best" departSpeed="max" from="24305223#0" id="truck234" to="151181510#1" type="truck_truck" />
    <trip depart="48353.00" departLane="best" from="436478051#2" id="truck235" to="293115460#18" type="truck_truck" />
    <trip depart="78845.00" departLane="best" departSpeed="max" from="314360433#0" id="truck236" to="118793923#1" type="truck_truck" />
    <trip depart="39114.00" departLane="best" from="118793922#3" id="truck237" to="522768611#1" type="truck_truck" />
    <trip depart="26467.00" departLane="best" departSpeed="max" from="396425746" id="truck238" to="317137449#9" type="truck_truck" />
    <trip depart="35471.00" departLane="best" from="-646591409" id="truck239" to="344084911" type="truck_truck" />
    <trip depart="51375.00" departLane="best" from="293115460#8" id="truck240" to="324601502#6" type="truck_truck" />
    <trip depart="5211.00" departLane="best" departSpeed="max" from="436277095#0" id="truck241" to="172580997" type="truck_truck" />
    <trip depart="80077.00" departLane="best" departSpeed="max" from="312662578#0" id="truck242" to="118793923#6" type="truck_truck" />
    <trip depart="73069.00" departLane="best" from="24305286#9" id="truck243" to="24295254#4" type="truck_truck" />
    <trip depart="85291.00" departLane="best" from="24305286#0" id="truck244" to="326569903#4" type="truck_truck" />
    <trip depart="2068.00" departLane="best" from="293115460#16" id="truck246" to="24295246#4" type="truck_truck" />
    <trip depart="20599.00" departLane="best" from="24305282#0" id="truck247" to="522768611#1" type="truck_truck" />
    <trip depart="44475.00" departLane="best" from="633508213#1" id="truck248" to="324601502#7" type="truck_truck" />
    <trip depart="57754.00" departLane="best" departSpeed="max" from="317137449#0" id="truck249" to="24305365#4" type="truck_truck" />
    <trip depart="32249.00" departLane="best" from="344084913#3" id="truck250" to="321572180#1" type="truck_truck" />
    <trip depart="85745.00" departLane="best" from="344084913#4" id="truck251" to="24295097#0" type="truck_truck" />
    <trip depart="49463.00" departLane="best" from="317137449#1" id="truck252" to="496739504#5" type="truck_truck" />
    <trip depart="19910.00" departLane="best" departSpeed="max" from="133242880#0" id="truck253" to="571354729" type="truck_truck" />