<?xml version="1.0" encoding="UTF-8"?>

<!-- generated on Thu Oct 10 16:40:59 2019 by Eclipse SUMO duarouter Version 1.2.0
<configuration xmlns:xsi="http://www.w3.org/2001/XMLSchema-instance" xsi:noNamespaceSchemaLocation="http://sumo.dlr.de/xsd/duarouterConfiguration.xsd">

    <input>
        <net-file value="osm.net.xml"/>
        <route-files value="osm_gauss.truck.trips.xml"/>
    </input>

    <output>
        <output-file value="result_gauss.rou.xml"/>
        <alternatives-output value="result_gauss.rou.alt.xml"/>
    </output>

</configuration>
-->

<routes xmlns:xsi="http://www.w3.org/2001/XMLSchema-instance" xsi:noNamespaceSchemaLocation="http://sumo.dlr.de/xsd/routes_file.xsd">
    <vType id="truck_truck" vClass="truck"/>
    <vehicle id="truck1" type="truck_truck" depart="28041.00" departLane="best">
        <route edges="24295136#14 24295136#15 24295136#16 24295136#17 24295136#18 293115460#7 293115460#8 293115460#9 293115460#10 293115460#11 293115460#15 293115460#16 293115460#17 293115460#18"/>
    </vehicle>
    <vehicle id="truck0" type="truck_truck" depart="35837.00" departLane="best" departSpeed="max">
        <route edges="435546424#0 435546424#1 435546424#2 344084913#0 344084913#1 344084913#2 344084913#3 344084913#4 344084913#5 344084913#7 344084913#8 344084913#9 344084913#11 344084913#13 321396548#3 118793920 320249039#0 320249039#2 329876536#0 -646591409 118793923#4"/>
    </vehicle>
    <vehicle id="truck4" type="truck_truck" depart="49318.00" departLane="best">
        <route edges="496739504#5 321572180#2 321572180#3 321572180#4 321572180#5 321572180#6 321572180#7 321572180#8 496739503 344372307#0 344372307#1 344372307#2 324923340 321544178 327607339#0 327607339#1 327607339#2 118793919#0 360771086#10 24295254#4 24295254#5 24295254#6"/>
    </vehicle>
    <vehicle id="truck3" type="truck_truck" depart="59201.00" departLane="best">
        <route edges="360771086#20 129281459#0 129281459#1 344084913#0 344084913#1 344084913#2 344084913#3 344084913#4 344084913#5 344084913#7 344084913#8 344084913#9 344084913#11 344084913#13 324601502#0 324601502#1 324601502#3 324601502#4 329505437#4 321544178 327607339#0"/>
    </vehicle>
    <vehicle id="truck7" type="truck_truck" depart="5267.00" departLane="best">
        <route edges="360771086#21 111895261 522768610#0 151073587#1 317137449#14 317137449#17 129281459#0 129281459#1 344084913#0 344084913#1 344084913#2 344084913#3 344084913#4 344084913#5 344084913#7 344084913#8 344084913#9 344084913#11 344084913#13 324601502#0 324601502#1 324601502#3 324601502#4 329505437#4 118793921#0 118793921#1 118793921#2 118793921#3 118793921#4 118793921#5 329505240#0 329505240#1 329505240#2 329505240#3 329505240#4"/>
    </vehicle>
    <vehicle id="truck6" type="truck_truck" depart="11208.00" departLane="best" departSpeed="max">
        <route edges="401494444#0 401494444#1 401494444#2 401494444#3 401494444#4 401494444#5 401494444#6 401494444#8 401494444#11 401494444#12 401494444#13 401494444#14 320601926#0 320601926#1"/>
    </vehicle>
    <vehicle id="truck8" type="truck_truck" depart="19118.00" departLane="best">
        <route edges="315196302#1 435546424#1 435546424#2 344084913#0 344084913#1 344084913#2 344084913#3 344084913#4 344084913#5 344084913#7 344084913#8 344084913#9 344084913#11 344084913#13 324601502#0 324601502#1 324601502#3 324601502#4 329505437#4 118793921#0 571354729"/>
    </vehicle>
    <vehicle id="truck11" type="truck_truck" depart="37688.00" departLane="best">
        <route edges="401494444#2 401494444#3 401494444#4 401494444#5 401494444#6 401494444#8 321396548#0 321396548#3 118793920 320249039#0"/>
    </vehicle>
    <vehicle id="truck10" type="truck_truck" depart="38857.00" departLane="best" departSpeed="max">
        <route edges="396425746 320249068#0 118793921#3 118793921#4 118793921#5 329505240#0 329505240#1 329505240#2 329505240#3 329505240#4 329505240#5 321544196#0 321544196#2 321544196#3"/>
    </vehicle>
    <vehicle id="truck5" type="truck_truck" depart="60516.00" departLane="best">
        <route edges="118793923#0 118793923#1 118793923#2 118793923#3 118793923#4 118793923#5 118793923#6 118793923#7 118793923#8"/>
    </vehicle>
    <vehicle id="truck28" type="truck_truck" depart="1094.00" departLane="best" departSpeed="max">
        <route edges="-24267146#1 -24267146#0 317137449#9 317137449#10 317137449#11 317137449#12 317137449#13 317137449#14 317137449#17 129281459#0 129281459#1 344084913#0 344084913#1 344084913#2 344084913#3 344084913#4 344084913#5 344084913#7 344084913#8 344084913#9 344084913#11 344084913#13 324601502#0 324601502#1 324601502#3 324601502#4 329505437#4 118793921#0 118793921#1 118793921#2 118793921#3 118793921#4 118793921#5 329505240#0"/>
    </vehicle>
    <vehicle id="truck30" type="truck_truck" depart="1363.00" departLane="best">
        <route edges="24295246#0 24305282#0 156115617#5 156115617#6 24305286#1 24305286#2 24305286#4 24305286#5 24305286#6 24305286#8 24305286#9 24305399#2 24305399#3 321572180#8"/>
    </vehicle>
    <vehicle id="truck40" type="truck_truck" depart="5584.00" departLane="best">
        <route edges="24305273#1 24305273#2 24305273#3 24305273#4 24305273#5 24305286#0 24305286#1 314360433#5 314360433#6 314360433#7 314360433#8 314360433#9 24295254#0 344084913#13 321396548#3 118793920"/>
    </vehicle>
    <vehicle id="truck18" type="truck_truck" depart="7663.00" departLane="best">
        <route edges="317137449#12 317137449#13 317137449#14 317137449#17 129281459#0 129281459#1 24295146#0 24295146#1 24295146#2 401494444#2 401494444#3 401494444#4 401494444#5 401494444#6 401494444#8 284925148#0 326569902#4"/>
    </vehicle>
    <vehicle id="truck17" type="truck_truck" depart="8442.00" departLane="best">
        <route edges="633508213#5 522768610#0 151073587#1 317137449#14 317137449#17 129281459#0 129281459#1 344084913#0 344084913#1 344084913#2 344084913#3 344084913#4 344084913#5 344084913#7 344084913#8 344084913#9 344084913#11 344084913#13 324601502#0 324601502#1 324601502#3 324601502#4 329505437#4 118793921#0 571354729 -344372307#1 -344372307#0 329505082 496739504#0 496739504#1 496739504#2 321572180#5 321572180#6 321572180#7 321572180#8"/>
    </vehicle>
    <vehicle id="truck58" type="truck_truck" depart="13497.00" departLane="best">
        <route edges="24267146#0 -24267146#0 317137449#9 317137449#10 317137449#11 317137449#12 317137449#13 317137449#14 317137449#17 129281459#0 129281459#1 24295146#0 24295146#1 24295146#2 401494444#2 401494444#3 401494444#4 401494444#5 401494444#6 401494444#8 284925148#0"/>
    </vehicle>
    <vehicle id="truck61" type="truck_truck" depart="13497.00" departLane="best">
        <route edges="317137449#1 317137449#2 317137449#3 317137449#7 317137449#8 317137449#9 317137449#10 317137449#11 317137449#12 317137449#13 317137449#14 317137449#17 129281459#0 129281459#1 344084913#0 344084913#1 344084913#2 344084913#3 344084913#4 344084913#5 344084913#7 344084913#8 344084913#9 344084913#11 344084913#13 324601502#0 324601502#1 324601502#3 118793918#3"/>
    </vehicle>
    <vehicle id="truck53" type="truck_truck" depart="13693.00" departLane="best" departSpeed="max">
        <route edges="284927032#0 284927032#3 321396548#0 321396548#3 118793920 320249039#0 320249039#2 329876536#0 329876536#1 329876536#2 329876536#3 284927029#0 284927029#1 284927029#2"/>
    </vehicle>
    <vehicle id="truck31" type="truck_truck" depart="13736.00" departLane="best">
        <route edges="129281458 360771086#19 293115460#0 293115460#3 293115460#4 293115460#5 293115460#6 24295136#20 522768610#4 522768610#5 522768610#6 522768610#7 -24295097#0 279653481#1"/>
    </vehicle>
    <vehicle id="truck33" type="truck_truck" depart="13740.00" departLane="best" departSpeed="max">
        <route edges="435541876#0 435541876#1 329505437#0 329505437#4 118793921#0 118793921#1 118793921#2 118793921#3 118793921#4 118793921#5 329505240#0 329505240#1 329505240#2 24295136#4"/>
    </vehicle>
    <vehicle id="truck46" type="truck_truck" depart="16517.00" departLane="best" departSpeed="max">
        <route edges="24295123 436478051#0 436478051#1 436478051#2 24295147#0 24295147#1 293115460#0 293115460#3 293115460#4 293115460#5 24305223#3 24305223#4 24295246#2"/>
    </vehicle>
    <vehicle id="truck14" type="truck_truck" depart="16632.00" departLane="best">
        <route edges="324601502#1 360771086#6 360771086#7 360771086#8 360771086#10 360771086#13 360771086#14 326569837#4 326569837#5 156115617#0 156115617#1 156115617#2 156115617#3 156115617#4 156115617#5 156115617#6 156115617#7 24305294#4 24305273#4 24305273#5"/>
    </vehicle>
    <vehicle id="truck15" type="truck_truck" depart="19388.00" departLane="best">
        <route edges="24305365#4 24305399#0 24305399#1 24305399#2 24295136#2 24295136#4 24295136#5 24295136#8 24295136#9 24295136#11 24295136#12 24295136#13 24295136#14 24295136#15 24295136#16 24295136#17 24295136#18 24295136#20 522768610#4 522768610#5 522768610#6 522768610#7 24295097#1"/>
    </vehicle>
    <vehicle id="truck57" type="truck_truck" depart="22555.00" departLane="best">
        <route edges="401494444#2 401494444#3 401494444#4 401494444#5 401494444#6 401494444#8 401494444#11 401494444#12 401494444#13 329505437#0 329505437#4 118793921#0 571354729 -344372307#1 -344372307#0 329505082 496739504#0 496739504#1 496739504#2 24295136#1 24295136#2"/>
    </vehicle>
    <vehicle id="truck41" type="truck_truck" depart="24320.00" departLane="best" departSpeed="max">
        <route edges="435541876#0 435541876#1 329505437#0 360771086#3 360771086#4 360771086#6 360771086#7 360771086#8 360771086#10 360771086#13 360771086#14 360771086#15 360771086#18 360771086#19 293115460#0 293115460#3 293115460#4 293115460#5 293115460#6 24295136#20 522768610#4 522768610#5 522768610#6 522768610#7"/>
    </vehicle>
    <vehicle id="truck49" type="truck_truck" depart="25407.00" departLane="best">
        <route edges="118793919#3 401494444#11 401494444#12 401494444#13 329505437#0 329505437#4 118793921#0 118793921#1 118793921#2 118793921#3 118793921#4 118793921#5 329505240#0 329505240#1 329505240#2 329505240#3 329505240#4 24305286#9 24305286#10 321572180#3 321572180#4"/>
    </vehicle>
    <vehicle id="truck60" type="truck_truck" depart="26342.00" departLane="best">
        <route edges="24295139#4 317137449#13 317137449#14 317137449#17 129281459#0 129281459#1 344084913#0 344084913#1 344084913#2 344084913#3 344084913#4 344084913#5 344084913#7 344084913#8 344084913#9 344084913#11 344084913#13 324601502#0 324601502#1 324601502#3 324601502#4 329505437#4 118793921#0 571354729 -344372307#1 -344372307#0 329505082 496739504#0 496739504#1 496739504#2 496739504#3"/>
    </vehicle>
    <vehicle id="truck23" type="truck_truck" depart="29998.00" departLane="best">
        <route edges="646591409 329876536#1 436277095#6 436277095#7 436277095#8 436277095#9 324924047#0 324924047#1 324924047#2 633508213#0 633508213#1 293115460#3"/>
    </vehicle>
    <vehicle id="truck59" type="truck_truck" depart="31037.00" departLane="best">
        <route edges="284927029#1 24305365#1 24305365#2 152762229#0 152762229#1 152762229#2 152762229#4 152762229#5 24295136#8 24295136#9 24295136#11 314360433#6 314360433#7 24295139#2 24295139#3 24295139#4"/>
    </vehicle>
    <vehicle id="truck38" type="truck_truck" depart="32160.00" departLane="best">
        <route edges="-133242880#1 133242880#1 279653481#5 279653481#6 279653481#7 317137449#8 317137449#9 317137449#10 317137449#11 317137449#12 317137449#13 317137449#14 317137449#17 129281459#0 129281459#1 24295146#0 24295146#1 24295146#2 401494444#2 401494444#3 401494444#4 24295250#1"/>
    </vehicle>
    <vehicle id="truck29" type="truck_truck" depart="36074.00" departLane="best">
        <route edges="326569902#5 326569837#0 326569837#1 326569837#4 326569837#5 156115617#0 156115617#1 156115617#2 156115617#3 156115617#4 156115617#5 156115617#6 156115617#7 156115617#8 111940154#1 314360433#1 314360433#2 314360433#3 314360433#4"/>
    </vehicle>
    <vehicle id="truck42" type="truck_truck" depart="37848.00" departLane="best">
        <route edges="118793921#4 118793921#5 329505241#1 496739503 344372307#0 344372307#1 344372307#2 324923340 321544178 327607339#0 327607339#1 327607339#2 118793919#0 360771086#10 360771086#13 360771086#14 360771086#15 360771086#18 360771086#19 293115460#0"/>
    </vehicle>
    <vehicle id="truck39" type="truck_truck" depart="38754.00" departLane="best" departSpeed="max">
        <route edges="-24295097#1 -24295097#0 279653481#1 279653481#2 279653481#3 279653481#5 279653481#6 279653481#7 317137449#8 317137449#9 317137449#10 317137449#11 317137449#12 317137449#13 317137449#14 317137449#17 129281459#0 129281459#1 344084913#0 344084913#1 344084913#2 344084913#3 344084913#4 344084913#5 344084913#7 344084913#8 344084913#9 344084913#11 344084913#13 324601502#0 324601502#1 324601502#3 324601502#4 329505437#4 118793921#0 571354729 -344372307#1 -344372307#0 329505082 496739504#0 496739504#1 496739504#2 496739504#3 496739504#4 496739504#5"/>
    </vehicle>
    <vehicle id="truck35" type="truck_truck" depart="39524.00" departLane="best">
        <route edges="24305223#1 317137449#12 317137449#13 317137449#14 317137449#17 129281459#0 129281459#1 344084913#0 344084913#1 344084913#2 344084913#3 344084913#4 344084913#5 344084913#7 344084913#8 344084913#9 344084913#11 344084913#13 324601502#0 324601502#1 324601502#3 324601502#4 329505437#4 118793921#0 571354729 -344372307#1 -344372307#0 329505082 496739504#0 496739504#1 496739504#2 321572180#5 321572180#6 321572180#7 321572180#8"/>
    </vehicle>
    <vehicle id="truck16" type="truck_truck" depart="40526.00" departLane="best">
        <route edges="156115617#0 156115617#1 156115617#2 293115457#2 314360433#9 24295254#0 344084913#13 324601502#0 324601502#1 324601502#3 324601502#4 329505437#4 118793921#0 118793921#1 118793921#2 118793921#3 118793921#4 118793921#5 329505240#0 329505240#1 329505240#2 329505240#3 329505240#4"/>
    </vehicle>
    <vehicle id="truck52" type="truck_truck" depart="43413.00" departLane="best">
        <route edges="293115460#9 293115460#10 293115460#11 293115460#15 293115460#16 293115460#17 24305273#1 24305273#2 24305273#3 24305273#4 24305273#5 24305286#0 24305286#1 24305286#2 24305286#4 24305286#5 24305286#6 152762229#4 152762229#5 152762229#8 111896823#2 111896823#3 329505241#1 496739503 344372307#0 344372307#1"/>
    </vehicle>
    <vehicle id="truck37" type="truck_truck" depart="53914.00" departLane="best" departSpeed="max">
        <route edges="360771086#0 360771086#1 360771086#3 360771086#4 360771086#6 360771086#7 360771086#8 360771086#10 360771086#13 360771086#14 326569837#4 326569837#5 156115617#0 156115617#1 156115617#2 156115617#3 156115617#4 156115617#5 156115617#6 156115617#7 156115617#8 111940154#1 314360433#1"/>
    </vehicle>
    <vehicle id="truck63" type="truck_truck" depart="54901.00" departLane="best">
        <route edges="522768610#3 522768610#4 -24267146#0 317137449#9 317137449#10 317137449#11 317137449#12 317137449#13 317137449#14 317137449#17 129281459#0 129281459#1 344084913#0 344084913#1 344084913#2 344084913#3 344084913#4 344084913#5 344084913#7 344084913#8 344084913#9 344084913#11 344084913#13 324601502#0 324601502#1 324601502#3 324601502#4 329505437#4 118793921#0 571354729 -344372307#1 -344372307#0 329505082 496739504#0 496739504#1 496739504#2 496739504#3 496739504#4"/>
    </vehicle>
    <vehicle id="truck32" type="truck_truck" depart="55208.00" departLane="best">
        <route edges="293115460#15 293115460#16 293115460#17 24305273#1 24305273#2 24305273#3 24305273#4 24305273#5 24305273#6 24305273#7 24295136#14 24295136#15 24295136#16 24295136#17 24295136#18 24295136#20 522768610#4 522768610#5 522768610#6 522768610#7 522768610#8"/>
    </vehicle>
    <vehicle id="truck36" type="truck_truck" depart="57604.00" departLane="best">
        <route edges="321544196#3 321544196#4 284927029#0 -684284130 436277095#3 436277095#4 436277095#5 24295136#11 314360433#6 314360433#7 314360433#8 314360433#9 324924047#1 156115617#0 156115617#1"/>
    </vehicle>
    <vehicle id="truck27" type="truck_truck" depart="59676.00" departLane="best">
        <route edges="522768610#4 -24267146#0 317137449#9 317137449#10 317137449#11 317137449#12 317137449#13 317137449#14 317137449#17 129281459#0 129281459#1 24295146#0 24295146#1 24295146#2 401494444#2 401494444#3"/>
    </vehicle>
    <vehicle id="truck13" type="truck_truck" depart="60322.00" departLane="best">
        <route edges="118793923#3 646591409 329876536#1 24295136#11 314360433#6 314360433#7 24295139#2 24295139#3 24295139#4"/>
    </vehicle>
    <vehicle id="truck21" type="truck_truck" depart="61130.00" departLane="best" departSpeed="max">
        <route edges="325447816#0 321572180#0 24305370#0 24305370#1 321544196#0 321544196#2 321544196#3 321544196#4 284927029#0 -684284130 436277095#3 24305294#0"/>
    </vehicle>
    <vehicle id="truck54" type="truck_truck" depart="61148.00" departLane="best">
        <route edges="329505240#5 321544196#0 152762229#1 152762229#2 152762229#4 152762229#5 152762229#8 152762229#9 152762229#10 152762229#11 327607339#0 327607339#1 327607339#2 118793919#0 360771086#10 360771086#13 360771086#14 360771086#15 344084913#7 24295250#0 401494444#5 326569837#1"/>
    </vehicle>
    <vehicle id="truck22" type="truck_truck" depart="61358.00" departLane="best" departSpeed="max">
        <route edges="436277095#0 436277095#2 436277095#3 436277095#4 436277095#5 436277095#6 436277095#7 436277095#8 436277095#9 118793919#0 118793919#3 284925148#0 284925148#1"/>
    </vehicle>
    <vehicle id="truck25" type="truck_truck" depart="62355.00" departLane="best">
        <route edges="118793918#3 401494444#13 329505437#0 329505437#4 118793921#0 118793921#1 118793921#2 118793921#3 118793921#4 118793921#5 329505240#0 329505240#1 329505240#2 329505240#3 329505240#4 24305286#9 24305286#10"/>
    </vehicle>
    <vehicle id="truck50" type="truck_truck" depart="63345.00" departLane="best">
        <route edges="24295136#8 24295136#9 436277095#6 436277095#7 436277095#8 436277095#9 324924047#0 324924047#1 324924047#2"/>
    </vehicle>
    <vehicle id="truck51" type="truck_truck" depart="64314.00" departLane="best">
        <route edges="436277095#9 324924047#0 324924047#1 324924047#2 633508213#0 633508213#1 293115460#3 293115460#4 293115460#5 293115460#6 293115460#7 293115460#8 293115460#9 293115460#10 293115460#11 317137449#7"/>
    </vehicle>
    <vehicle id="truck24" type="truck_truck" depart="66436.00" departLane="best">
        <route edges="360771086#10 344084913#13 324601502#0 324601502#1 324601502#3 324601502#4 329505437#4 118793921#0 118793921#1 118793921#2 118793921#3 118793921#4 118793921#5 329505240#0 329505240#1 329505240#2 329505240#3 329505240#4 329505240#5 321544188 24305365#4 24305399#0 24305370#1"/>
    </vehicle>
    <vehicle id="truck47" type="truck_truck" depart="66575.00" departLane="best">
        <route edges="633508215#3 401494444#4 401494444#5 401494444#6 401494444#8 401494444#11 401494444#12 401494444#13 329505437#0 324601502#6"/>
    </vehicle>
    <vehicle id="truck43" type="truck_truck" depart="68116.00" departLane="best">
        <route edges="344084913#8 344084913#9 344084913#11 344084913#13 324601502#0 324601502#1 324601502#3 324601502#4 329505437#4 118793921#0 118793921#1 118793921#2 118793921#3 118793921#4 118793921#5 329505240#0 329505240#1 329505240#2 329505240#3 329505240#4 329505240#5 321544196#0 152762229#1"/>
    </vehicle>
    <vehicle id="truck56" type="truck_truck" depart="69782.00" departLane="best">
        <route edges="279653481#1 279653481#2 279653481#3 279653481#5 279653481#6 279653481#7 317137449#8 317137449#9 317137449#10 317137449#11 317137449#12 317137449#13 317137449#14 317137449#17 129281459#0 129281459#1 24295146#0 24295146#1 24295146#2 401494444#2 401494444#3 401494444#4 401494444#5 401494444#6 24295254#5 24295254#6"/>
    </vehicle>
    <vehicle id="truck34" type="truck_truck" depart="71398.00" departLane="best" departSpeed="max">
        <route edges="436277095#0 436277095#2 436277095#3 436277095#4 436277095#5 436277095#6 436277095#7 436277095#8 436277095#9 118793919#0 118793919#3 401494444#11 401494444#12 401494444#13 401494444#14 320601926#0 369135366#0 435541876#1"/>
    </vehicle>
    <vehicle id="truck44" type="truck_truck" depart="71619.00" departLane="best" departSpeed="max">
        <route edges="284927032#0 284927032#3 321396548#0 360771086#10 360771086#13 360771086#14 360771086#15 360771086#18 360771086#19 293115460#0 293115460#3 293115460#4 293115460#5 293115460#6 24295136#20 522768610#4 522768610#5 522768610#6 522768610#7 24295097#1"/>
    </vehicle>
    <vehicle id="truck48" type="truck_truck" depart="72248.00" departLane="best">
        <route edges="24295136#2 24295136#4 24295136#5 24295136#8 24295136#9 24295136#11 24295136#12 24295136#13 24295136#14 24295136#15 24295136#16 24295136#17 24295136#18 24295136#20 522768610#4 522768610#5 24295100#1"/>
    </vehicle>
    <vehicle id="truck45" type="truck_truck" depart="73501.00" departLane="best" departSpeed="max">
        <route edges="317137449#0 24305273#1 24305273#2 24305273#3 24305273#4 24305273#5 24305286#0 24305286#1 24305286#2 24305286#4 24305286#5 24305286#6 152762229#4 152762229#5 152762229#8 111896823#2 111896823#3 329505240#0 329505240#1 329505240#2 329505240#3 329505240#4"/>
    </vehicle>
    <vehicle id="truck20" type="truck_truck" depart="76649.00" departLane="best" departSpeed="max">
        <route edges="435541876#0 435541876#1 329505437#0 360771086#3 360771086#4 360771086#6 360771086#7 360771086#8 360771086#10 360771086#13 360771086#14 326569837#4 326569837#5 156115617#0 156115617#1 156115617#2 156115617#3 24295139#3 24295246#3 24295246#4"/>
    </vehicle>
    <vehicle id="truck55" type="truck_truck" depart="77449.00" departLane="best">
        <route edges="571354729 -571354729 118793921#1 118793921#2 118793921#3 118793921#4 118793921#5 329505240#0 329505240#1 329505240#2 329505240#3 329505240#4 329505240#5 321544196#0 321544196#2 321544196#3 118793923#7 118793923#8"/>
    </vehicle>
    <vehicle id="truck19" type="truck_truck" depart="80338.00" departLane="best">
        <route edges="24295136#11 24295136#12 24295136#13 24295136#14 24295136#15 24295136#16 24295136#17 24295136#18 24295136#20 522768610#4 522768610#5"/>
    </vehicle>
    <vehicle id="truck26" type="truck_truck" depart="81097.00" departLane="best">
        <route edges="646591409 329876536#1 436277095#6 436277095#7 436277095#8 436277095#9 118793919#0 360771086#10 360771086#13 360771086#14 360771086#15 360771086#18 360771086#19 360771086#20 129281459#0 129281459#1 24295146#0 24295146#1 302109830#0 302109830#1 302109830#2"/>
    </vehicle>
    <vehicle id="truck12" type="truck_truck" depart="82389.00" departLane="best">
        <route edges="327607339#1 327607339#2 324924047#0 324924047#1 156115617#0 156115617#1 156115617#2 156115617#3 156115617#4 156115617#5 156115617#6 156115617#7 156115617#8 111940154#1 111940154#2"/>
    </vehicle>
    <vehicle id="truck144" type="truck_truck" depart="1717.00" departLane="best">
        <route edges="321396548#0 360771086#10 360771086#13 360771086#14 360771086#15 360771086#18 360771086#19 293115460#0 293115460#3 293115460#4 293115460#5 293115460#6 24295136#20 522768610#4 522768610#5 522768610#6 522768610#7 522768610#8"/>
    </vehicle>
    <vehicle id="truck113" type="truck_truck" depart="1888.00" departLane="best">
        <route edges="522768610#0 151073587#1 317137449#14 317137449#17 129281459#0 129281459#1 344084913#0 344084913#1 344084913#2 344084913#3 344084913#4 344084913#5 344084913#7 344084913#8 344084913#9 344084913#11 344084913#13 324601502#0 324601502#1 324601502#3 324601502#4 329505437#4 118793921#0 118793921#1 118793921#2 118793921#3 118793921#4 118793921#5 329505240#0 329505240#1 329505240#2 24295136#4 24295136#5"/>
    </vehicle>
    <vehicle id="truck127" type="truck_truck" depart="2260.00" departLane="best" departSpeed="max">
        <route edges="325447816#0 321572180#0 24305370#0 24305370#1 321544196#0 321544196#2 321544196#3 321544196#4 284927029#0 284927029#1 284927029#2"/>
    </vehicle>
    <vehicle id="truck125" type="truck_truck" depart="3292.00" departLane="best" departSpeed="max">
        <route edges="435546424#0 435546424#1 435546424#2 344084913#0 344084913#1 344084913#2 344084913#3 344084913#4 344084913#5 344084913#7 344084913#8 344084913#9 344084913#11 344084913#13 324601502#0 324601502#1 324601502#3 324601502#4 329505437#4 118793921#0 118793921#1 118793921#2 118793921#3 118793921#4 118793921#5 329505240#0 329505240#1 329505240#2 329505240#3 329505240#4 329505240#5 321544196#0 321544196#2"/>
    </vehicle>
    <vehicle id="truck112" type="truck_truck" depart="4024.00" departLane="best">
        <route edges="522768610#3 522768610#4 -24267146#0 317137449#9 317137449#10 317137449#11 293115460#6 293115460#7 293115460#8 293115460#9 293115460#10 293115460#11 293115460#15 293115460#16 293115460#17 24305273#1 24305273#2 111940154#0 156115617#9"/>
    </vehicle>
    <vehicle id="truck203" type="truck_truck" depart="4661.00" departLane="best" departSpeed="max">
        <route edges="312662578#0 324923340 321544178 327607339#0 327607339#1 327607339#2 118793919#0 360771086#10 360771086#13"/>
    </vehicle>
    <vehicle id="truck135" type="truck_truck" depart="4687.00" departLane="best">
        <route edges="401494444#1 401494444#2 401494444#3 401494444#4 401494444#5 401494444#6 401494444#8 401494444#11 401494444#12 401494444#13 329505437#0 329505437#4 118793921#0 571354729 344372307#2 118793922#0"/>
    </vehicle>
    <vehicle id="truck196" type="truck_truck" depart="4691.00" departLane="best" departSpeed="max">
        <route edges="435541876#0 435541876#1 329505437#0 360771086#3 360771086#4 360771086#6 360771086#7 360771086#8 360771086#10 360771086#13 360771086#14 326569837#4 326569837#5 156115617#0 156115617#1 156115617#2 156115617#3 156115617#4 156115617#5 24295136#13 24295136#14 24295136#15 24295136#16 24295136#17"/>
    </vehicle>
    <vehicle id="truck117" type="truck_truck" depart="4988.00" departLane="best">
        <route edges="24305399#2 24295136#2 24295136#4 24295136#5 24295136#8 24295136#9 24295136#11 24295136#12 24295136#13 24295136#14 24295136#15 24295136#16 24295136#17 24295136#18 24295136#20 522768610#4 -24267146#0 317137449#9"/>
    </vehicle>
    <vehicle id="truck149" type="truck_truck" depart="5884.00" departLane="best">
        <route edges="302109830#0 302109830#1 302109830#2 436478051#1 436478051#2 24295147#0 24295147#1 293115460#0 293115460#3 293115460#4 293115460#5 293115460#6 24295136#20 24295136#21"/>
    </vehicle>
    <vehicle id="truck160" type="truck_truck" depart="6285.00" departLane="best">
        <route edges="401494444#12 401494444#13 329505437#0 360771086#3 360771086#4 360771086#6 360771086#7 360771086#8 360771086#10 360771086#13 360771086#14 360771086#15 360771086#18 360771086#19 293115460#0 293115460#3 293115460#4 293115460#5 293115460#6 24295136#20 522768610#4 522768610#5 522768610#6 522768610#7 522768610#8"/>
    </vehicle>
    <vehicle id="truck69" type="truck_truck" depart="8242.00" departLane="best">
        <route edges="293115460#16 293115460#17 24305273#1 24305273#2 111940154#0 111940154#1 111940154#2 684284130 284927029#1 24305365#1 24305365#2 24305365#3 24305365#4 24305399#0 24305370#1"/>
    </vehicle>
    <vehicle id="truck171" type="truck_truck" depart="10385.00" departLane="best" departSpeed="max">
        <route edges="-24295097#1 -24295097#0 279653481#1 279653481#2 279653481#3 279653481#5 279653481#6 279653481#7 317137449#8 317137449#9 317137449#10 317137449#11 24305223#3 24305223#4 24295246#2 24295246#3 293115457#1 156115617#3 156115617#4 156115617#5 156115617#6 24305286#1 314360433#5"/>
    </vehicle>
    <vehicle id="truck199" type="truck_truck" depart="10563.00" departLane="best">
        <route edges="24295136#11 314360433#6 314360433#7 314360433#8 314360433#9 24295254#0 360771086#13 360771086#14 360771086#15"/>
    </vehicle>
    <vehicle id="truck189" type="truck_truck" depart="10579.00" departLane="best">
        <route edges="118793923#5 24305286#5 24305286#6 152762229#4 152762229#5 152762229#8 152762229#9 152762229#10 152762229#11 327607339#0 327607339#1 327607339#2 324924047#0 324924047#1 324924047#2 633508213#0 633508213#1 633508213#5 522768611#0"/>
    </vehicle>
    <vehicle id="truck110" type="truck_truck" depart="10913.00" departLane="best">
        <route edges="324601502#6 118793922#3 320601926#0 369135366#0 435541876#1 329505437#0 329505437#4 321544178 327607339#0 327607339#1 327607339#2 118793920 320249039#0 320249039#2 329876536#0 329876536#1 329876536#2 329876536#3 284927029#0 -684284130 436277095#3 24305294#0 24305294#2 24305294#3"/>
    </vehicle>
    <vehicle id="truck176" type="truck_truck" depart="11429.00" departLane="best" departSpeed="max">
        <route edges="133242880#0 133242880#1 279653481#5 279653481#6 279653481#7 317137449#8 317137449#9 317137449#10 317137449#11 317137449#12 317137449#13 317137449#14 317137449#17 129281459#0 129281459#1 344084913#0 344084913#1 344084913#2 344084913#3 344084913#4 344084913#5 344084913#7 344084913#8 326569837#4 326569837#5 324924047#2"/>
    </vehicle>
    <vehicle id="truck77" type="truck_truck" depart="12247.00" departLane="best">
        <route edges="152762229#4 152762229#5 152762229#8 152762229#9 152762229#10 152762229#11 327607339#0 327607339#1 327607339#2 324924047#0 324924047#1 324924047#2 633508213#0 633508213#1 633508213#5 522768611#0"/>
    </vehicle>
    <vehicle id="truck67" type="truck_truck" depart="12369.00" departLane="best">
        <route edges="24305370#1 321544196#0 152762229#1 152762229#2 152762229#4 152762229#5 152762229#8 152762229#9 152762229#10 152762229#11 327607339#0 327607339#1 327607339#2 118793919#0 360771086#10 360771086#13 360771086#14 360771086#15 633508215#3 633508215#4"/>
    </vehicle>