<?xml version="1.0" encoding="UTF-8"?>

<!-- generated on Wed Oct 16 11:16:44 2019 by Eclipse SUMO duarouter Version 1.2.0
<configuration xmlns:xsi="http://www.w3.org/2001/XMLSchema-instance" xsi:noNamespaceSchemaLocation="http://sumo.dlr.de/xsd/duarouterConfiguration.xsd">

    <input>
        <net-file value="osm.net.xml"/>
        <route-files value="osm.truck.trips.xml"/>
    </input>

    <output>
        <output-file value="routes.rou.xml"/>
        <alternatives-output value="routes.rou.alt.xml"/>
    </output>

</configuration>
-->

<routes xmlns:xsi="http://www.w3.org/2001/XMLSchema-instance" xsi:noNamespaceSchemaLocation="http://sumo.dlr.de/xsd/routes_file.xsd">
    <vType id="truck_truck_E1" vClass="truck" emissionClass="HBEFA3/LDV_G_EU1"/>
    <vehicle id="truck0" type="truck_truck_E1" depart="76093.00">
        <route edges="428057111 618315978#1 618315978#2 298431255#1 129897442#5 111925884#0 111925884#1 412296575#1 412296575#2 435491726#1 435491726#5 435491726#9 435491726#13 435491726#15 435491726#18 75223322#0 75223322#1 151316320#7 304437031 -437506344"/>
    </vehicle>
    <vType id="truck_truck_E5" vClass="truck" emissionClass="HBEFA3/LDV_G_EU5"/>
    <vehicle id="truck4" type="truck_truck_E5" depart="31147.00">
        <route edges="35557450#3 331470728#13 129897454#1 412296575#1 412296575#2 435491726#1 435491726#5 435491726#9 442317099#1 442317099#2 -442309012#2 -442309012#1"/>
    </vehicle>
    <vType id="truck_truck_E4" vClass="truck" emissionClass="HBEFA3/LDV_G_EU4"/>
    <vehicle id="truck3" type="truck_truck_E4" depart="37686.00">
        <route edges="619019400#2 619019400#3 619019400#4 619019400#5 619019400#6 619019400#7 619019400#8 320898734#0 320898734#1 284929204#0 284929204#1 284929204#2 120863177#0"/>
    </vehicle>
    <vehicle id="truck2" type="truck_truck_E5" depart="54228.00">
        <route edges="435491726#5 442469223#1 435343301#1 151316320#1 151316320#2 430072721#7"/>
    </vehicle>
    <vType id="truck_truck_E6" vClass="truck" emissionClass="HBEFA3/LDV_G_EU6"/>
    <vehicle id="truck5" type="truck_truck_E6" depart="72878.00">
        <route edges="279864811#0 75036010#0 75036010#1 -617934930 619019400#7 619019400#8 320898734#0 428030875#3 428030875#4 428030875#5 75223332 651186341#0 651186341#1 651186341#2 442469223#1 435343301#1 151316320#1 151316320#2 151316320#3 151316320#5 401506730#7"/>
    </vehicle>
    <vType id="truck_truck_E2" vClass="truck" emissionClass="HBEFA3/LDV_G_EU2"/>
    <vehicle id="truck1" type="truck_truck_E2" depart="77903.00">
        <route edges="299781215 319662804#8 355775773 279864770#0 279864770#1 279864770#2 279864770#3 279864770#4 -479823503 35557265#0 35557265#1 35557265#2 35557265#3 428030875#2 320898734#1 284929209#0"/>
    </vehicle>
    <vehicle id="truck15" type="truck_truck_E5" depart="414.00">
        <route edges="44364379#3 44364379#4 435393029#1 435393029#2 435491726#1 435491726#5 435491726#9 435491726#13 435491726#15"/>
    </vehicle>
    <vehicle id="truck11" type="truck_truck_E4" depart="7954.00">
        <route edges="320898740 320898734#0 428030875#3 428030875#4 428030875#5 75223332 651186341#0 651186341#1 651186341#2 442469224#1 442867200#1 442867200#2 442867200#7 172243635 111948492 618315978#1 618315978#2 412495541#1 412495541#2 39413204#2 172244021#1"/>
    </vehicle>
    <vehicle id="truck23" type="truck_truck_E5" depart="10172.00">
        <route edges="126587263#2 406644982#0 406644982#1 151316320#1 151316320#2 151316320#3 151316320#5 151316320#6 75223322#2 75223322#3 304437030#0 304437030#1 304437030#2"/>
    </vehicle>
    <vehicle id="truck24" type="truck_truck_E5" depart="11842.00">
        <route edges="428046226#3 75036027#2 413976459#1 413976459#2 413976459#3 618055289#1 618055289#2 618055289#3 336833691#0"/>
    </vehicle>
    <vehicle id="truck14" type="truck_truck_E6" depart="16344.00">
        <route edges="618055289#1 428035708 391958207#6 391958207#7 391958207#8 391958207#9 618055290 428046226#0 428046226#1 428046226#2 428046226#3 428046226#4 391958206#0 413976463#0 413976463#2"/>
    </vehicle>
    <vehicle id="truck21" type="truck_truck_E6" depart="23187.00">
        <route edges="284929204#2 120863177#0 120863177#1 120863177#2 120863177#4 410089531#1 410089531#2 435491726#1 435491726#5 435491726#9 435491726#13 435491726#15 435491726#18 75223322#0 75223322#1 75223322#2 75223322#3 304437030#0 304437030#1 304437030#2 304437030#3 304437030#4 304437030#5 304442660#0"/>
    </vehicle>
    <vehicle id="truck10" type="truck_truck_E5" depart="26752.00">
        <route edges="44364379#2 44364379#3 172242987#0 -111924331#1 430077169#8"/>
    </vehicle>
    <vehicle id="truck8" type="truck_truck_E5" depart="30630.00">
        <route edges="279864813#0 413976463#0 75036032 619019400#1 619019400#2 619019400#3 619019400#4 619019400#5 619019400#6 619019400#7 619019400#8 320898734#0 428030875#3 428030875#4 428030875#5 75223332 651186341#0 651186341#1 651186341#2 442469224#1 442867200#1 442867200#2 442867200#7 172243635 111948492 618315978#1 618315978#2 298431255#1 129897442#5 412495543#0"/>
    </vehicle>
    <vehicle id="truck9" type="truck_truck_E5" depart="38596.00">
        <route edges="44364379#4 435393029#1 435393029#2 172098498#2 410089534#0 410089534#3 410089534#4 410089534#6 410089534#7 654035438 331470728#8 331470728#9 129897427 -129897427"/>
    </vehicle>
    <vehicle id="truck16" type="truck_truck_E6" depart="44099.00">
        <route edges="410089534#0 410089534#3 410089534#4 120863177#4 410089531#1 410089531#2 435491726#1 435491726#5 435491726#9 435491726#13 435491726#15 435491726#18 435491726#20 435491726#21 435491726#22 319788732#1 319788732#2 75037344#1"/>
    </vehicle>
    <vehicle id="truck20" type="truck_truck_E6" depart="48016.00">
        <route edges="430410163#6 44364644#1 44364644#2 44364644#3 129897442#5 111925884#0 111925884#1 412296575#1 412296575#2 172098498#2 410089534#0 410089534#3 410089534#4 410089534#6 410089534#7 654035438 -654035438"/>
    </vehicle>
    <vehicle id="truck17" type="truck_truck_E2" depart="53263.00">
        <route edges="344149309#0 344149309#3 401506730#0 401506730#1 401506730#2 401506730#3 401506730#4 401506730#5 401506730#6 401506730#7 401506730#8 618118083#1 618118082#2 412307193#0 412307193#1 442469224#1 442867200#1 442867200#2 442867200#7 442867200#8 412296083#1"/>
    </vehicle>
    <vehicle id="truck22" type="truck_truck_E6" depart="54209.00">
        <route edges="111948492 618315978#1 618315978#2 298431255#1 129897442#5 111925884#0 111925884#1 412296575#1 412296575#2 435491726#1 435491726#5 435491726#9 435491726#13 435491726#15 435491726#18 75223322#0 75223322#1 151316320#7 28707264#1"/>
    </vehicle>
    <vehicle id="truck19" type="truck_truck_E5" depart="55986.00">
        <route edges="618055291#2 618055291#3 618055291#4 619019400#8 320898734#0 428030875#3 428030875#4 428030875#5 75223332 651186341#0 651186341#1 651186341#2 442469224#1 442867200#1 442867200#2 442867200#7 172243635 111948492 618315978#1 618315978#2 412495541#1"/>
    </vehicle>
    <vehicle id="truck12" type="truck_truck_E5" depart="57585.00">
        <route edges="75036027#1 75036027#2 75036027#3 619019400#1 619019400#2 619019400#3 619019400#4 619019400#5 619019400#6 619019400#7 619019400#8 320898734#0 320898734#1"/>
    </vehicle>
    <vehicle id="truck18" type="truck_truck_E5" depart="60161.00">
        <route edges="44364645#4 410089534#7 410089534#8 410089534#9 129897418 299781215 319662804#8 355775773 279864770#0 279864770#1 279864770#2 279864770#3 279864770#4 -479823503 35557265#0 35557265#1 35557265#2 35557265#3 428030875#2 428030875#3 428030875#4"/>
    </vehicle>
    <vehicle id="truck7" type="truck_truck_E4" depart="73673.00">
        <route edges="430072204#0 410089530#2 651186341#1 651186341#2 442469224#1 442867200#1 442867200#2 172098498#2 410089534#0 410089534#3 410089534#4 410089534#6 410089534#7"/>
    </vehicle>
    <vehicle id="truck6" type="truck_truck_E6" depart="78580.00">
        <route edges="-442309012#0 651186341#1 651186341#2 442469224#1 442867200#1 442867200#2 172098498#2 410089534#0 410089534#3 410089534#4 410089534#6 410089534#7 410089534#8 410089534#9 129897418 299781215 319662804#8 355775773 279864770#0 279864770#1 279864770#2"/>
    </vehicle>
    <vehicle id="truck25" type="truck_truck_E5" depart="82689.00">
        <route edges="336833691#0 563946130 284929204#1 284929204#2 129897450 299781216 355775773 279864770#0 279864770#1 279864770#2 279864770#3 279864770#4 -479823503 35557265#0 35557265#1 35557265#2 35557265#3 35557265#4 35557265#5 279864811#0 75036010#0 75036010#1 -617934930 619019400#7 619019400#8 279864789"/>
    </vehicle>
    <vehicle id="truck81" type="truck_truck_E4" depart="873.00">
        <route edges="284929204#2 129897450 299781216 355775773 279864770#0 279864770#1 279864770#2 279864770#3 279864770#4 -479823503 35557265#0 35557265#1 35557265#2 35557265#3 35557265#4 35557265#5 279864811#0 75036010#0 75036010#1 -617934930 619019400#7 619019400#8"/>
    </vehicle>
    <vehicle id="truck105" type="truck_truck_E5" depart="3719.00">
        <route edges="298367768#7 355607761#2 442451678#0 75036027#0 -428073531#1 -428073531#0 442334036#1"/>
    </vehicle>
    <vType id="truck_truck_E3" vClass="truck" emissionClass="HBEFA3/LDV_G_EU3"/>
    <vehicle id="truck100" type="truck_truck_E3" depart="3821.00">
        <route edges="75037344#1 442451693 442451694 391958206#0 413976463#0 75036032 619019400#1 619019400#2 619019400#3 619019400#4 619019400#5 619019400#6 619019400#7 619019400#8 320898734#0 320898734#1 284929209#0 284929209#1 284929209#2 35557263#2 -75036007#1 75036007#1"/>
    </vehicle>
    <vehicle id="truck99" type="truck_truck_E6" depart="3851.00">
        <route edges="75243088#5 401506730#0 401506730#1 401506730#2 401506730#3 401506730#4 401506730#5 401506730#6 401506730#7 401506730#8 618118083#1 618118082#2 442317099#1 442317099#2 442317100 391958207#7 24252780 467318483#0"/>
    </vehicle>
    <vehicle id="truck77" type="truck_truck_E5" depart="6300.00">
        <route edges="129897442#5 111925884#0 111925884#1 412296575#1 412296575#2 172098498#2 410089534#0 410089534#3 410089534#4 410089534#6 410089534#7 410089534#8 410089534#9 129897418 299781215 319662804#8 355775773 279864770#0 279864770#1 279864770#2 279864770#3 279864770#4 -479823503 35557265#0 35557265#1 284929209#1"/>
    </vehicle>
    <vehicle id="truck51" type="truck_truck_E5" depart="6461.00">
        <route edges="430077169#1 430072721#8 618118685#1 618118686#2 412307193#0 412307193#1 442469224#1 442867200#1 442867200#2 172098498#2 410089534#0"/>
    </vehicle>
    <vehicle id="truck65" type="truck_truck_E5" depart="6978.00">
        <route edges="319515359#3 35557265#0 35557265#1 35557265#2 35557265#3 35557265#4 35557265#5 279864811#0 75036010#0 75036010#1 75036010#2 320898743#1 320898743#2 428032853#0 428032853#1 428032853#2 428046226#1 428046226#2 -75036013#2"/>
    </vehicle>
    <vehicle id="truck113" type="truck_truck_E6" depart="7386.00">
        <route edges="401506730#6 401506730#7 401506730#8 75223312#1 618055292#0 618055292#1 618055291#0 413976459#3 618055289#1 618055289#2 618055289#3"/>
    </vehicle>
    <vehicle id="truck98" type="truck_truck_E2" depart="11675.00">
        <route edges="410089534#9 129897418 299781215 319662804#8 355775773 279864770#0 279864770#1 279864770#2 279864770#3 279864770#4 -479823503 35557265#0 75036007#0 -75036007#0"/>
    </vehicle>
    <vehicle id="truck79" type="truck_truck_E5" depart="11860.00">
        <route edges="284929209#0 35557265#2 35557265#3 428030875#2 320898734#1 284929204#0 284929204#1 284929204#2"/>
    </vehicle>
    <vehicle id="truck90" type="truck_truck_E5" depart="13079.00">
        <route edges="435491726#20 435491726#21 75036013#0 -428073531#0 442334036#1 435707014#4 435707014#5 618118083#1 618118082#2 412307193#0 412307193#1 442469223#1 435343301#1 144953677#0 144953677#1 144953677#2 370644951#5 430072721#0 430072721#3 430072721#4 430072721#5 430072721#6"/>
    </vehicle>
    <vehicle id="truck73" type="truck_truck_E6" depart="13844.00">
        <route edges="410089534#3 410089534#4 120863177#4 410089531#1 410089531#2 435491726#1 435491726#5 435491726#9 435491726#13 435491726#15"/>
    </vehicle>
    <vehicle id="truck42" type="truck_truck_E5" depart="14037.00">
        <route edges="35557265#0 35557265#1 35557265#2 35557265#3 428030875#2 320898734#1 284929204#0 284929204#1 284929204#2"/>
    </vehicle>
    <vehicle id="truck94" type="truck_truck_E5" depart="14074.00">
        <route edges="24252801#4 344149309#3 401506730#0 401506730#1 401506730#2 401506730#3 401506730#4 401506730#5 401506730#6 401506730#7 430077168#0 430077169#0 430077169#1 430077169#2 435343301#1 144953677#0 144953677#1 144953677#2 370644951#5 370644951#6 370644951#7"/>
    </vehicle>
    <vehicle id="truck50" type="truck_truck_E4" depart="14555.00">
        <route edges="-264858336 264858336 619019400#2 619019400#3 619019400#4 619019400#5 619019400#6 619019400#7 619019400#8 320898734#0 428030875#3 428030875#4 428030875#5 75223332 651186341#0 651186341#1 651186341#2 442469224#1 442867200#1 442867200#2 44364379#2 44364379#3 44364379#4 435393029#1 435393029#2"/>
    </vehicle>
    <vehicle id="truck54" type="truck_truck_E6" depart="14700.00">
        <route edges="370644951#7 370644951#9 370644951#10 401506730#5 401506730#6 401506730#7 401506730#8 435491726#18 435491726#20 435491726#21 435491726#22 75036027#0 75036027#1 75036027#2 75036027#3 619019400#1 619019400#2 619019400#3 619019400#4 619019400#5 619019400#6 75036020"/>
    </vehicle>
    <vehicle id="truck124" type="truck_truck_E6" depart="15844.00">
        <route edges="430072721#7 430072721#8 618118685#1 618118686#2 412307193#0 412307193#1 442469224#1 442867200#1 442867200#2 172098498#2 410089534#0 410089534#3 410089534#4 410089534#6 410089534#7 410089534#8 410089534#9 129897418 299781215 319662804#8 355775773 279864770#0 279864770#1 279864770#2 279864770#3 279864770#4 279864770#5 315199154#0"/>
    </vehicle>
    <vehicle id="truck120" type="truck_truck_E1" depart="16221.00">
        <route edges="35557450#2 35557450#3 331470728#13 129897454#1 412296575#1 412296575#2 442867200#7 172243635 412495542#0"/>
    </vehicle>
    <vehicle id="truck57" type="truck_truck_E6" depart="16644.00">
        <route edges="627176990#1 -428073531#1 -428073531#0 442334036#1 435707014#4 435707014#5 75223312#1 618055292#0 618055292#1"/>
    </vehicle>
    <vehicle id="truck104" type="truck_truck_E6" depart="16855.00">
        <route edges="344149309#0 344149309#3 401506730#0 401506730#1 401506730#2 401506730#3 401506730#4 401506730#5 401506730#6 151316320#6 75223322#2 75223322#3"/>
    </vehicle>
    <vehicle id="truck108" type="truck_truck_E6" depart="21673.00">
        <route edges="412296084 618315978#2 298431255#1 129897442#5 111925884#0 111925884#1 412296575#1 412296575#2 44364379#2 44364379#3 44364379#4 435393029#1"/>
    </vehicle>
    <vehicle id="truck44" type="truck_truck_E6" depart="22786.00">
        <route edges="120863177#1 44364645#7 284929204#2 331470728#6 -654035438"/>
    </vehicle>
    <vehicle id="truck125" type="truck_truck_E4" depart="23865.00">
        <route edges="319662804#3 319662804#5 319662804#6 319662804#7 319662804#8 355775773 279864770#0 279864770#1 279864770#2 279864770#3 279864770#4 -479823503 331470728#0 331470728#1 120863177#0 120863177#1 120863177#2 120863177#4 410089531#1 410089531#2 435491726#1 435491726#5 435491726#9 435491726#13 435491726#15 435491726#18 435707014#4 435707014#5"/>
    </vehicle>
    <vehicle id="truck58" type="truck_truck_E6" depart="25941.00">
        <route edges="304442660#1 304442660#2 24252801#2 24252801#3 24252801#4 344149309#3 401506730#0 401506730#1 401506730#2 401506730#3 401506730#4 401506730#5 401506730#6 401506730#7 401506730#8 435491726#18 435491726#20 435491726#21 75036013#0 75036013#1 75036013#2 428046226#3"/>
    </vehicle>
    <vehicle id="truck61" type="truck_truck_E5" depart="27220.00">
        <route edges="442334036#0 442334036#1 435707014#4 435707014#5 618118083#1 618118082#2 412307193#0 412307193#1 442469224#1 442867200#1 442867200#2 172098498#2 410089534#0 410089534#3 410089534#4 120863177#4 410089531#1 410089531#2"/>
    </vehicle>
    <vehicle id="truck69" type="truck_truck_E6" depart="28249.00">
        <route edges="442309013#4 428073529 442334036#1 435707014#4 435707014#5 618118083#1 618118082#2 412307193#0 412307193#1 442469223#1 435343301#1 144953677#0 144953677#1 144953677#2"/>
    </vehicle>
    <vehicle id="truck36" type="truck_truck_E5" depart="30115.00">
        <route edges="618118083#1 618118082#2 412307193#0 412307193#1 442469224#1 442867200#1 442867200#2 172098498#2 410089534#0 410089534#3 410089534#4 410089534#6 410089534#7 654035438 331470728#8 331470728#9 129897427 319662804#2 319662804#3 319662804#5"/>
    </vehicle>
    <vehicle id="truck123" type="truck_truck_E5" depart="30807.00">
        <route edges="28707264#1 435365881 435707014#1 435707014#3 435707014#4 435707014#5 75223312#1 618055292#0 618055292#1 618055291#0 618055291#1 618055291#2 618055291#3 618055291#4 619019400#8 320898734#0 320898734#1 284929209#0 35557265#2"/>
    </vehicle>
    <vehicle id="truck33" type="truck_truck_E3" depart="31023.00">
        <route edges="284929204#2 120863177#0 120863177#1 120863177#2 120863177#4 410089531#1 410089531#2 435491726#1 435491726#5 435491726#9 442317099#1 442317099#2 -442309012#2"/>
    </vehicle>
    <vehicle id="truck129" type="truck_truck_E5" depart="32134.00">
        <route edges="298367768#7 355607761#2 442451678#0 435707014#1 435707014#3 435707014#4 435707014#5 75223312#1 618055292#0 618055292#1 618055291#0 618055291#1 618055291#2 618055291#3 618055291#4 619019400#8 279864789 279864811#0 75036010#0 75036010#1"/>
    </vehicle>
    <vehicle id="truck56" type="truck_truck_E6" depart="32395.00">
        <route edges="401506730#5 401506730#6 151316320#6 75223322#2 75223322#3 304437030#0 304437030#1 304437030#2 304437030#3 304437030#4 304437030#5 304442660#0 304442660#1 304442660#2 24252801#2 24252801#3 24252801#4 24252801#5"/>
    </vehicle>
    <vehicle id="truck35" type="truck_truck_E4" depart="32942.00">
        <route edges="279864770#4 -479823503 35557265#0 35557265#1 35557265#2 35557265#3 35557265#4 35557265#5 279864811#0 75036010#0 75036010#1 75036010#2 320898743#1 320898743#2 428032853#0 428032853#1 428032853#2 428046226#1 428046226#2 -75036013#2 75036013#2"/>
    </vehicle>
    <vehicle id="truck85" type="truck_truck_E5" depart="34197.00">
        <route edges="75036013#0 -428073531#0 442334036#1 435707014#4 435707014#5 618118083#1 618118082#2 412307193#0 412307193#1 442469224#1 442867200#1 442867200#2 442867200#7 172243635 111948492 618315978#1 618315978#2 298431255#1 298431255#2 39413204#0 412304785"/>
    </vehicle>
    <vehicle id="truck28" type="truck_truck_E6" depart="34375.00">
        <route edges="172244021#3 279043423#0 279043423#1 430410163#6 44364644#1 44364644#2 44364644#3 129897442#5 111925884#0 111925884#1 412296575#1 412296575#2 435491726#1 435491726#5 435491726#9 435491726#13 435491726#15"/>
    </vehicle>
    <vehicle id="truck41" type="truck_truck_E5" depart="35458.00">
        <route edges="412495543#0 298431255#1 129897442#5 111925884#0 111925884#1 412296575#1 412296575#2 435491726#1 435491726#5 435491726#9 435491726#13 435491726#15 435491726#18 435491726#20 435491726#21 435491726#22 75036027#0 75036027#1 75036027#2 75036027#3 619019400#1 619019400#2 619019400#3 619019400#4 619019400#5"/>
    </vehicle>
    <vehicle id="truck116" type="truck_truck_E5" depart="37127.00">
        <route edges="413976459#3 618055289#1 618055289#2 428030875#5 75223332 651186341#0 651186341#1 651186341#2 442469223#1 435343301#1 151316320#1 151316320#2 430072721#7"/>
    </vehicle>
    <vehicle id="truck103" type="truck_truck_E5" depart="38181.00">
        <route edges="35557265#1 35557265#2 35557265#3 35557265#4 35557265#5 279864811#0 75036010#0 75036010#1 75036010#2 320898743#1 320898743#2 428032853#0 428032853#1 428032853#2 428046226#1 428046226#2 -75036013#2"/>
    </vehicle>
    <vehicle id="truck128" type="truck_truck_E5" depart="39487.00">
        <route edges="111924331#1 -172242987#0 44364379#4 435393029#1 435393029#2 172098498#2 410089534#0 410089534#3 410089534#4 410089534#6 410089534#7 410089534#8 410089534#9 129897418 299781215 319662804#8 355775773 279864770#0 279864770#1 279864770#2 279864770#3 279864770#4 -479823503 35557265#0 35557265#1 35557265#2 35557265#3 35557265#4 35557265#5 279864811#0 279864811#1"/>
    </vehicle>
    <vehicle id="truck40" type="truck_truck_E4" depart="40206.00">
        <route edges="412296575#2 442867200#7 172243635 111948492 618315978#1 618315978#2 298431255#1 298431255#2 298431255#3"/>
    </vehicle>
    <vehicle id="truck59" type="truck_truck_E5" depart="41269.00">
        <route edges="428030875#2 428030875#3 428030875#4 428030875#5 75223332 651186341#0 651186341#1 651186341#2 442469224#1 442867200#1 442867200#2 442867200#7 172243635"/>
    </vehicle>
    <vehicle id="truck70" type="truck_truck_E5" depart="41490.00">
        <route edges="391958207#7 24252780 467318483#0 467318483#2 618118082#2 412307193#0 412307193#1 442469224#1 442867200#1 442867200#2 172098498#2 410089534#0 410089534#3 410089534#4 410089534#6 410089534#7 410089534#8 410089534#9"/>
    </vehicle>
    <vehicle id="truck48" type="truck_truck_E6" depart="42029.00">
        <route edges="75243088#4 75243088#5 401506730#0 401506730#1 401506730#2 401506730#3 401506730#4 401506730#5 401506730#6 401506730#7 401506730#8 618118083#1 618118082#2 412307193#0 412307193#1 442469224#1 442867200#1 442867200#2 172098498#2 410089534#0 410089534#3 410089534#4 120863177#4 410089531#1"/>
    </vehicle>
    <vehicle id="truck75" type="truck_truck_E6" depart="47302.00">
        <route edges="75243088#3 75243088#4 75243088#5 401506730#0 401506730#1 401506730#2 401506730#3 401506730#4 401506730#5 401506730#6 401506730#7 401506730#8 75223312#1 428073529 428073531#0"/>
    </vehicle>
    <vehicle id="truck68" type="truck_truck_E6" depart="47802.00">
        <route edges="-75036014#1 -75036014#0 320898743#2 619019400#3 619019400#4 619019400#5 619019400#6 619019400#7 619019400#8 320898734#0 428030875#3 428030875#4 428030875#5 75223332 651186341#0 442309012#0 442309012#1 442309012#2"/>
    </vehicle>
    <vehicle id="truck88" type="truck_truck_E2" depart="48251.00">
        <route edges="120863177#4 410089531#1 410089531#2 435491726#1 435491726#5 442469223#1 435343301#1 144953677#0 144953677#1 144953677#2 370644951#5 370644951#6 370644951#7 370644951#9 370644951#10"/>
    </vehicle>
    <vehicle id="truck49" type="truck_truck_E6" depart="48261.00">
        <route edges="75037344#1 627176989 627176990#0 627176990#1 75036027#1 75036027#2 413976459#1 413976459#2 618055291#1 618055291#2"/>
    </vehicle>
    <vehicle id="truck89" type="truck_truck_E2" depart="49346.00">
        <route edges="35557707 319662804#5 319662804#6 319662804#7 319662804#8 355775773 279864770#0 279864770#1 279864770#2 279864770#3 279864770#4 -479823503 35557265#0 35557265#1 35557265#2 35557265#3 428030875#2 428030875#3 428030875#4 428030875#5 391958207#5"/>
    </vehicle>
    <vehicle id="truck112" type="truck_truck_E3" depart="50167.00">
        <route edges="-75036007#2 35557263#3 319515359#2 319515359#3 331470728#0 331470728#1 120863177#0 120863177#1 120863177#2 120863177#4 410089531#1 410089531#2 442867200#7 172243635 412495542#0"/>
    </vehicle>
    <vehicle id="truck52" type="truck_truck_E5" depart="50900.00">
        <route edges="298431255#1 129897442#5 111925884#0 111925884#1 412296575#1 412296575#2 435491726#1 435491726#5 435491726#9 435491726#13 435491726#15 435491726#18 435491726#20 435491726#21 75036013#0 75036013#1 75036013#2 428046226#3"/>
    </vehicle>
    <vehicle id="truck43" type="truck_truck_E6" depart="50914.00">
        <route edges="75243088#4 75243088#5 401506730#0 401506730#1 401506730#2 401506730#3 401506730#4 401506730#5 401506730#6 401506730#7 430077168#0 430077169#0 430077169#1 430077169#2 430077169#4 430077169#5 430077169#6 -111924331#0 406644984#1 406644981#0"/>
    </vehicle>
    <vehicle id="truck64" type="truck_truck_E3" depart="52026.00">
        <route edges="618118685#1 618118686#2 412307193#0 412307193#1 442469224#1 442867200#1 442867200#2 172098498#2 410089534#0 410089534#3 410089534#4 410089534#6 44364645#7"/>
    </vehicle>
    <vehicle id="truck47" type="truck_truck_E5" depart="52328.00">
        <route edges="-75036013#2 75036013#2 428046226#3 75036027#2 75036027#3 619019400#1 619019400#2 619019400#3 619019400#4 619019400#5 619019400#6 619019400#7 619019400#8 320898734#0 320898734#1 284929209#0 284929209#1 284929209#2 35557263#2"/>
    </vehicle>
    <vehicle id="truck27" type="truck_truck_E1" depart="54904.00">
        <route edges="428073531#1 -428073531#1 -428073531#0 442334036#1 435707014#4 435707014#5 618118083#1 618118082#2 412307193#0 412307193#1 442469224#1 442867200#1 442867200#2 172098498#2 410089534#0 35557450#1 35557450#2 44364645#3 428030874#1"/>
    </vehicle>
    <vehicle id="truck87" type="truck_truck_E4" depart="55609.00">
        <route edges="44364379#3 44364379#4 430410163#1 430410163#2 430410163#3 430410163#5 279043423#2"/>
    </vehicle>
    <vehicle id="truck53" type="truck_truck_E5" depart="55861.00">
        <route edges="129897442#1 129897442#2 129897442#3 129897442#4 129897442#5 111925884#0 111925884#1 412296575#1 412296575#2 435491726#1 435491726#5 442469223#1 435343301#1 144953677#0 144953677#1 144953677#2 370644951#5 370644951#6 370644951#7 370644951#9 370644951#10 370644951#11 370644951#12"/>
    </vehicle>
    <vehicle id="truck31" type="truck_truck_E6" depart="56671.00">
        <route edges="412296084 618315978#2 298431255#1 129897442#5 111925884#0 111925884#1 412296575#1 412296575#2 435491726#1 435491726#5 435491726#9 435491726#13 435491726#15 435491726#18 75223322#0 24252788#1 430077168#0 430077169#0 430077169#1"/>
    </vehicle>
    <vehicle id="truck66" type="truck_truck_E5" depart="56708.00">
        <route edges="618118685#1 618118686#2 435491726#13 435491726#15 75223312#1 618055292#0 618055292#1 618055291#0 618055291#1 618055291#2 618055291#3 618055291#4 619019400#8 279864789 279864811#0 75036010#0 75036010#1 75036010#2 320898743#1 75036014#0"/>
    </vehicle>
    <vehicle id="truck119" type="truck_truck_E5" depart="57877.00">
        <route edges="413976459#3 618055289#1 618055289#2 428030875#5"/>
    </vehicle>
    <vehicle id="truck114" type="truck_truck_E6" depart="58365.00">
        <route edges="172098498#2 410089534#0 410089534#3 410089534#4 120863177#4 410089531#1 410089531#2 435491726#1 435491726#5 435491726#9 435491726#13 435491726#15 435491726#18 435491726#20 435491726#21 435491726#22 75036027#0 75036027#1"/>
    </vehicle>
    <vehicle id="truck110" type="truck_truck_E1" depart="59025.00">
        <route edges="75036032 619019400#1 619019400#2 619019400#3 619019400#4 619019400#5 619019400#6 619019400#7 619019400#8 320898734#0 428030875#3 428030875#4 428030875#5 75223332 651186341#0 651186341#1 651186341#2 442469224#1 442867200#1 442867200#2 442867200#7 172243635 111948492 618315978#1 618315978#2 412495541#1 412495541#2"/>
    </vehicle>
    <vehicle id="truck92" type="truck_truck_E5" depart="59619.00">
        <route edges="35557265#2 35557265#3 428030875#2 428030875#3 428030875#4 428030875#5 391958207#5 -428035708 320898740"/>
    </vehicle>
    <vehicle id="truck71" type="truck_truck_E6" depart="60384.00">
        <route edges="298367768#7 355607761#2 442451678#0 435707014#1 435707014#3 435707014#4 435707014#5 618118083#1 618118082#2"/>
    </vehicle>
    <vehicle id="truck32" type="truck_truck_E5" depart="60858.00">
        <route edges="517107201#1 -172242987#0 44364379#4 435393029#1 435393029#2 435491726#1 435491726#5 435491726#9 442317099#1 442317099#2"/>
    </vehicle>
    <vehicle id="truck74" type="truck_truck_E5" depart="61817.00">
        <route edges="279864770#0 279864770#1 279864770#2 279864770#3 279864770#4 -479823503 331470728#0 331470728#1 331470728#6 331470728#8 331470728#9 129897427 319662804#2 319662804#3"/>
    </vehicle>
    <vehicle id="truck60" type="truck_truck_E5" depart="62213.00">
        <route edges="442309013#2 442309013#3 442309013#4 428073529 442334036#1 435707014#4 435707014#5 618118083#1 618118082#2 412307193#0 412307193#1 442469224#1 442867200#1 442867200#2 172098498#2 410089534#0 410089534#3"/>
    </vehicle>
    <vehicle id="truck83" type="truck_truck_E6" depart="62730.00">
        <route edges="28707264#1 24252788#0 24252788#1 430077168#0 430077169#0 430077169#1 430077169#2 435343301#1 144953677#0 144953677#1 144953677#2 370644951#5 430072721#0 430072721#3 430072721#4"/>
    </vehicle>
    <vehicle id="truck101" type="truck_truck_E5" depart="64107.00">
        <route edges="618055289#1 428035708 391958207#6 391958207#7 24252780 467318483#0 467318483#2 435491726#15 435491726#18 75223322#0 24252788#1"/>
    </vehicle>
    <vehicle id="truck37" type="truck_truck_E6" depart="64321.00">
        <route edges="430072204#2 430072204#3 336833695#0 336833695#1 284929209#0 35557265#2"/>
    </vehicle>
    <vehicle id="truck111" type="truck_truck_E4" depart="65748.00">
        <route edges="410089534#4 120863177#4 410089531#1 410089531#2 435491726#1 435491726#5 435491726#9 435491726#13 435491726#15 435491726#18 75223322#0 75223322#1 151316320#7 28707264#1 435365881 435707014#1 435707014#3"/>
    </vehicle>
    <vehicle id="truck86" type="truck_truck_E6" depart="67337.00">
        <route edges="391958207#6 391958207#7 24252780 467318483#0 442309013#1 442309013#2 442309013#3 442309013#4 428073529 442334036#1"/>
    </vehicle>
    <vehicle id="truck82" type="truck_truck_E4" depart="67508.00">