<routes xmlns:xsi="http://www.w3.org/2001/XMLSchema-instance" xsi:noNamespaceSchemaLocation="http://sumo.dlr.de/xsd/routes_file.xsd">
    <vType id="truck_truck" vClass="truck" />
    <vType emissionClass="HBEFA3/LDV_G_EU1" id="truck_truck_E1" vClass="truck" />
    <vType emissionClass="HBEFA3/LDV_G_EU2" id="truck_truck_E2" vClass="truck" />
    <vType emissionClass="HBEFA3/LDV_G_EU3" id="truck_truck_E3" vClass="truck" />
    <vType emissionClass="HBEFA3/LDV_G_EU4" id="truck_truck_E4" vClass="truck" />
    <vType emissionClass="HBEFA3/LDV_G_EU5" id="truck_truck_E5" vClass="truck" />
    <vType emissionClass="HBEFA3/LDV_G_EU6" id="truck_truck_E6" vClass="truck" />
    <trip depart="0.00" departLane="best" departSpeed="max" from="435546424#0" id="truck0" to="118793923#4" type="truck_truck_E4" />
    <trip depart="157.09" departLane="best" from="24295136#14" id="truck1" to="293115460#18" type="truck_truck_E5" />
    <trip depart="471.27" departLane="best" from="360771086#20" id="truck3" to="327607339#0" type="truck_truck_E6" />
    <trip depart="628.36" departLane="best" from="496739504#5" id="truck4" to="24295254#6" type="truck_truck_E5" />
    <trip depart="785.45" departLane="best" from="118793923#0" id="truck5" to="118793923#8" type="truck_truck_E5" />
    <trip depart="942.55" departLane="best" departSpeed="max" from="401494444#0" id="truck6" to="320601926#1" type="truck_truck_E5" />
    <trip depart="1099.64" departLane="best" from="360771086#21" id="truck7" to="329505240#4" type="truck_truck_E5" />
    <trip depart="1256.73" departLane="best" from="315196302#1" id="truck8" to="571354729" type="truck_truck_E6" />
    <trip depart="1570.91" departLane="best" departSpeed="max" from="396425746" id="truck10" to="321544196#3" type="truck_truck_E6" />
    <trip depart="1728.00" departLane="best" from="401494444#2" id="truck11" to="320249039#0" type="truck_truck_E5" />
    <trip depart="1885.09" departLane="best" from="327607339#1" id="truck12" to="111940154#2" type="truck_truck_E5" />
    <trip depart="2042.18" departLane="best" from="118793923#3" id="truck13" to="24295139#4" type="truck_truck_E5" />
    <trip depart="2199.27" departLane="best" from="324601502#1" id="truck14" to="24305273#5" type="truck_truck_E5" />
    <trip depart="2356.36" departLane="best" from="24305365#4" id="truck15" to="24295097#1" type="truck_truck_E5" />
    <trip depart="2513.45" departLane="best" from="156115617#0" id="truck16" to="329505240#4" type="truck_truck_E6" />
    <trip depart="2670.55" departLane="best" from="633508213#5" id="truck17" to="321572180#8" type="truck_truck_E5" />
    <trip depart="2827.64" departLane="best" from="317137449#12" id="truck18" to="326569902#4" type="truck_truck_E6" />
    <trip depart="2984.73" departLane="best" from="24295136#11" id="truck19" to="522768610#5" type="truck_truck_E5" />
    <trip depart="3141.82" departLane="best" departSpeed="max" from="435541876#0" id="truck20" to="24295246#4" type="truck_truck_E4" />
    <trip depart="3298.91" departLane="best" departSpeed="max" from="325447816#0" id="truck21" to="24305294#0" type="truck_truck_E5" />
    <trip depart="3456.00" departLane="best" departSpeed="max" from="436277095#0" id="truck22" to="284925148#1" type="truck_truck_E5" />
    <trip depart="3613.09" departLane="best" from="646591409" id="truck23" to="293115460#3" type="truck_truck_E4" />
    <trip depart="3770.18" departLane="best" from="360771086#10" id="truck24" to="24305370#1" type="truck_truck_E5" />
    <trip depart="3927.27" departLane="best" from="118793918#3" id="truck25" to="24305286#10" type="truck_truck_E5" />
    <trip depart="4084.36" departLane="best" from="646591409" id="truck26" to="302109830#2" type="truck_truck_E5" />
    <trip depart="4241.45" departLane="best" from="522768610#4" id="truck27" to="401494444#3" type="truck_truck_E2" />
    <trip depart="4398.55" departLane="best" departSpeed="max" from="-24267146#1" id="truck28" to="329505240#0" type="truck_truck_E6" />
    <trip depart="4555.64" departLane="best" from="326569902#5" id="truck29" to="314360433#4" type="truck_truck_E6" />
    <trip depart="4712.73" departLane="best" from="24295246#0" id="truck30" to="321572180#8" type="truck_truck_E6" />
    <trip depart="4869.82" departLane="best" from="129281458" id="truck31" to="279653481#1" type="truck_truck_E5" />
    <trip depart="5026.91" departLane="best" from="293115460#15" id="truck32" to="522768610#8" type="truck_truck_E5" />
    <trip depart="5184.00" departLane="best" departSpeed="max" from="435541876#0" id="truck33" to="24295136#4" type="truck_truck_E4" />
    <trip depart="5341.09" departLane="best" departSpeed="max" from="436277095#0" id="truck34" to="435541876#1" type="truck_truck_E6" />
    <trip depart="5498.18" departLane="best" from="24305223#1" id="truck35" to="321572180#8" type="truck_truck_E5" />
    <trip depart="5655.27" departLane="best" from="321544196#3" id="truck36" to="156115617#1" type="truck_truck_E5" />
    <trip depart="5812.36" departLane="best" departSpeed="max" from="360771086#0" id="truck37" to="314360433#1" type="truck_truck_E5" />
    <trip depart="5969.45" departLane="best" from="-133242880#1" id="truck38" to="24295250#1" type="truck_truck_E5" />
    <trip depart="6126.55" departLane="best" departSpeed="max" from="-24295097#1" id="truck39" to="496739504#5" type="truck_truck_E5" />
    <trip depart="6283.64" departLane="best" from="24305273#1" id="truck40" to="118793920" type="truck_truck_E6" />
    <trip depart="6440.73" departLane="best" departSpeed="max" from="435541876#0" id="truck41" to="522768610#7" type="truck_truck_E6" />
    <trip depart="6597.82" departLane="best" from="118793921#4" id="truck42" to="293115460#0" type="truck_truck_E5" />
    <trip depart="6754.91" departLane="best" from="344084913#8" id="truck43" to="152762229#1" type="truck_truck_E5" />
    <trip depart="6912.00" departLane="best" departSpeed="max" from="284927032#0" id="truck44" to="24295097#1" type="truck_truck_E5" />
    <trip depart="7069.09" departLane="best" departSpeed="max" from="317137449#0" id="truck45" to="329505240#4" type="truck_truck_E4" />
    <trip depart="7226.18" departLane="best" departSpeed="max" from="24295123" id="truck46" to="24295246#2" type="truck_truck_E2" />
    <trip depart="7383.27" departLane="best" from="633508215#3" id="truck47" to="324601502#6" type="truck_truck_E5" />
    <trip depart="7540.36" departLane="best" from="24295136#2" id="truck48" to="24295100#1" type="truck_truck_E6" />
    <trip depart="7697.45" departLane="best" from="118793919#3" id="truck49" to="321572180#4" type="truck_truck_E5" />
    <trip depart="7854.55" departLane="best" from="24295136#8" id="truck50" to="324924047#2" type="truck_truck_E5" />
    <trip depart="8011.64" departLane="best" from="436277095#9" id="truck51" to="317137449#7" type="truck_truck_E5" />
    <trip depart="8168.73" departLane="best" from="293115460#9" id="truck52" to="344372307#1" type="truck_truck_E3" />
    <trip depart="8325.82" departLane="best" departSpeed="max" from="284927032#0" id="truck53" to="284927029#2" type="truck_truck_E4" />
    <trip depart="8482.91" departLane="best" from="329505240#5" id="truck54" to="326569837#1" type="truck_truck_E4" />
    <trip depart="8640.00" departLane="best" from="571354729" id="truck55" to="118793923#8" type="truck_truck_E6" />
    <trip depart="8797.09" departLane="best" from="279653481#1" id="truck56" to="24295254#6" type="truck_truck_E6" />
    <trip depart="8954.18" departLane="best" from="401494444#2" id="truck57" to="24295136#2" type="truck_truck_E6" />
    <trip depart="9111.27" departLane="best" from="24267146#0" id="truck58" to="284925148#0" type="truck_truck_E5" />
    <trip depart="9268.36" departLane="best" from="284927029#1" id="truck59" to="24295139#4" type="truck_truck_E6" />
    <trip depart="9425.45" departLane="best" from="24295139#4" id="truck60" to="496739504#3" type="truck_truck_E6" />
    <trip depart="9582.55" departLane="best" from="317137449#1" id="truck61" to="118793918#3" type="truck_truck_E6" />
    <trip depart="9896.73" departLane="best" from="522768610#3" id="truck63" to="496739504#4" type="truck_truck_E6" />
    <trip depart="10053.82" departLane="best" departSpeed="max" from="401494444#0" id="truck64" to="156115617#7" type="truck_truck_E5" />
    <trip depart="10210.91" departLane="best" departSpeed="max" from="312662578#0" id="truck65" to="24295097#1" type="truck_truck_E4" />
    <trip depart="10368.00" departLane="best" departSpeed="max" from="279653481#0" id="truck66" to="118793920" type="truck_truck_E4" />
    <trip depart="10525.09" departLane="best" from="24305370#1" id="truck67" to="633508215#4" type="truck_truck_E6" />
    <trip depart="10682.18" departLane="best" from="24295147#1" id="truck68" to="344372307#0" type="truck_truck_E6" />
    <trip depart="10839.27" departLane="best" from="293115460#16" id="truck69" to="24305370#1" type="truck_truck_E5" />
    <trip depart="10996.36" departLane="best" from="496739504#5" id="truck70" to="633508215#4" type="truck_truck_E5" />
    <trip depart="11153.45" departLane="best" from="317137449#12" id="truck71" to="329505082" type="truck_truck_E4" />
    <trip depart="11310.55" departLane="best" from="152762229#2" id="truck72" to="24295146#0" type="truck_truck_E5" />
    <trip depart="11467.64" departLane="best" from="522768610#3" id="truck73" to="320249039#2" type="truck_truck_E6" />
    <trip depart="11624.73" departLane="best" departSpeed="max" from="317137449#0" id="truck74" to="344084911" type="truck_truck_E5" />
    <trip depart="11781.82" departLane="best" from="111940154#1" id="truck75" to="320249068#2" type="truck_truck_E2" />
    <trip depart="11938.91" departLane="best" departSpeed="max" from="314360433#0" id="truck76" to="401494444#15" type="truck_truck_E5" />
    <trip depart="12096.00" departLane="best" from="152762229#4" id="truck77" to="522768611#0" type="truck_truck_E6" />
    <trip depart="12253.09" departLane="best" from="118793921#2" id="truck78" to="172580997" type="truck_truck_E5" />
    <trip depart="12410.18" departLane="best" from="321396548#0" id="truck79" to="321544196#3" type="truck_truck_E5" />
    <trip depart="12567.27" departLane="best" departSpeed="max" from="24295123" id="truck80" to="327607512#0" type="truck_truck_E5" />
    <trip depart="12724.36" departLane="best" from="24305273#5" id="truck81" to="344084911" type="truck_truck_E2" />
    <trip depart="12881.45" departLane="best" from="118793920" id="truck82" to="24295097#1" type="truck_truck_E5" />
    <trip depart="13195.64" departLane="best" from="24305365#4" id="truck84" to="156115617#3" type="truck_truck_E4" />
    <trip depart="13352.73" departLane="best" departSpeed="max" from="396425746" id="truck85" to="327607511#0" type="truck_truck_E6" />
    <trip depart="13509.82" departLane="best" from="321544196#4" id="truck86" to="633508215#4" type="truck_truck_E6" />
    <trip depart="13666.91" departLane="best" departSpeed="max" from="325447816#0" id="truck87" to="-133242880#0" type="truck_truck_E6" />
    <trip depart="13824.00" departLane="best" from="360771086#6" id="truck88" to="24295146#2" type="truck_truck_E5" />
    <trip depart="13981.09" departLane="best" departSpeed="max" from="325447816#0" id="truck89" to="522768610#3" type="truck_truck_E5" />
    <trip depart="14138.18" departLane="best" departSpeed="max" from="151073587#0" id="truck90" to="151181510#1" type="truck_truck_E2" />
    <trip depart="14452.36" departLane="best" from="329505240#0" id="truck92" to="24295097#0" type="truck_truck_E5" />
    <trip depart="14609.45" departLane="best" departSpeed="max" from="312662578#0" id="truck93" to="436287845#0" type="truck_truck_E3" />
    <trip depart="14766.55" departLane="best" departSpeed="max" from="401494444#0" id="truck94" to="118793923#7" type="truck_truck_E6" />
    <trip depart="14923.64" departLane="best" departSpeed="max" from="284927032#0" id="truck95" to="24295139#3" type="truck_truck_E5" />
    <trip depart="15080.73" departLane="best" from="-24267146#0" id="truck96" to="344084913#3" type="truck_truck_E5" />
    <trip depart="15237.82" departLane="best" from="324601502#3" id="truck97" to="24295136#21" type="truck_truck_E5" />
    <trip depart="15394.91" departLane="best" departSpeed="max" from="284927032#0" id="truck98" to="-133242880#0" type="truck_truck_E6" />
    <trip depart="15552.00" departLane="best" from="118793921#0" id="truck99" to="436277095#3" type="truck_truck_E5" />
    <trip depart="15709.09" departLane="best" from="435546424#1" id="truck100" to="314360433#8" type="truck_truck_E5" />
    <trip depart="15866.18" departLane="best" from="24305273#1" id="truck101" to="436287845#0" type="truck_truck_E6" />
    <trip depart="16023.27" departLane="best" departSpeed="max" from="435546424#0" id="truck102" to="24295097#1" type="truck_truck_E5" />
    <trip depart="16180.36" departLane="best" from="24295139#4" id="truck103" to="118793923#8" type="truck_truck_E5" />
    <trip depart="16337.45" departLane="best" departSpeed="max" from="360771086#0" id="truck104" to="436277095#3" type="truck_truck_E5" />
    <trip depart="16651.64" departLane="best" departSpeed="max" from="-24295097#1" id="truck106" to="329505437#0" type="truck_truck_E5" />
    <trip depart="16808.73" departLane="best" from="24305286#1" id="truck107" to="496739504#7" type="truck_truck_E4" />
    <trip depart="16965.82" departLane="best" departSpeed="max" from="360771086#0" id="truck108" to="129281459#0" type="truck_truck_E5" />
    <trip depart="17122.91" departLane="best" from="360771086#14" id="truck109" to="24295100#1" type="truck_truck_E6" />
    <trip depart="17280.00" departLane="best" from="324601502#6" id="truck110" to="24305294#3" type="truck_truck_E5" />
    <trip depart="17594.18" departLane="best" from="522768610#3" id="truck112" to="156115617#9" type="truck_truck_E6" />
    <trip depart="17751.27" departLane="best" from="522768610#0" id="truck113" to="24295136#5" type="truck_truck_E5" />
    <trip depart="17908.36" departLane="best" from="118793923#7" id="truck114" to="279653481#1" type="truck_truck_E5" />
    <trip depart="18065.45" departLane="best" from="329505240#5" id="truck115" to="24295246#3" type="truck_truck_E5" />
    <trip depart="18222.55" departLane="best" from="321544196#2" id="truck116" to="293115460#4" type="truck_truck_E5" />
    <trip depart="18379.64" departLane="best" from="24305399#2" id="truck117" to="317137449#9" type="truck_truck_E3" />
    <trip depart="18693.82" departLane="best" from="-133242880#1" id="truck119" to="496739504#4" type="truck_truck_E6" />
    <trip depart="18850.91" departLane="best" departSpeed="max" from="317137449#0" id="truck120" to="329505082" type="truck_truck_E6" />
    <trip depart="19008.00" departLane="best" from="24305273#4" id="truck121" to="401494444#15" type="truck_truck_E4" />
    <trip depart="19165.09" departLane="best" from="329505240#1" id="truck122" to="24295146#2" type="truck_truck_E6" />
    <trip depart="19322.18" departLane="best" from="279653481#1" id="truck123" to="24295146#0" type="truck_truck_E5" />
    <trip depart="19479.27" departLane="best" departSpeed="max" from="133242880#0" id="truck124" to="24305370#0" type="truck_truck_E2" />
    <trip depart="19636.36" departLane="best" departSpeed="max" from="435546424#0" id="truck125" to="321544196#2" type="truck_truck_E3" />
    <trip depart="19793.45" departLane="best" departSpeed="max" from="284927032#0" id="truck126" to="320249039#2" type="truck_truck_E5" />
    <trip depart="19950.55" departLane="best" departSpeed="max" from="325447816#0" id="truck127" to="284927029#2" type="truck_truck_E5" />
    <trip depart="20107.64" departLane="best" from="293115457#2" id="truck128" to="24295097#1" type="truck_truck_E5" />
    <trip depart="20264.73" departLane="best" from="293115460#9" id="truck129" to="436287845#0" type="truck_truck_E6" />
    <trip depart="20421.82" departLane="best" from="360771086#14" id="truck130" to="156115617#9" type="truck_truck_E5" />
    <trip depart="20578.91" departLane="best" from="118793921#4" id="truck131" to="293115460#6" type="truck_truck_E3" />
    <trip depart="20736.00" departLane="best" from="360771086#7" id="truck132" to="344084911" type="truck_truck_E4" />
    <trip depart="20893.09" departLane="best" from="326569902#0" id="truck133" to="24295100#1" type="truck_truck_E5" />
    <trip depart="21050.18" departLane="best" departSpeed="max" from="24295123" id="truck134" to="-571354729" type="truck_truck_E6" />
    <trip depart="21207.27" departLane="best" from="401494444#1" id="truck135" to="118793922#0" type="truck_truck_E6" />
    <trip depart="21364.36" departLane="best" from="279653481#7" id="truck136" to="321572180#3" type="truck_truck_E5" />
    <trip depart="21521.45" departLane="best" from="24295100#0" id="truck137" to="326569903#5" type="truck_truck_E6" />
    <trip depart="21678.55" departLane="best" departSpeed="max" from="314360433#0" id="truck138" to="24295136#17" type="truck_truck_E5" />
    <trip depart="21835.64" departLane="best" departSpeed="max" from="325447816#0" id="truck139" to="-133242880#0" type="truck_truck_E5" />
    <trip depart="21992.73" departLane="best" from="156115617#2" id="truck140" to="522768610#8" type="truck_truck_E5" />
    <trip depart="22149.82" departLane="best" from="314360433#7" id="truck141" to="118793918#3" type="truck_truck_E5" />
    <trip depart="22306.91" departLane="best" from="24295139#4" id="truck142" to="401494444#15" type="truck_truck_E6" />
    <trip depart="22464.00" departLane="best" from="293115460#17" id="truck143" to="360771086#19" type="truck_truck_E6" />
    <trip depart="22621.09" departLane="best" from="321396548#0" id="truck144" to="522768610#8" type="truck_truck_E5" />
    <trip depart="22778.18" departLane="best" from="435545285" id="truck145" to="321544188" type="truck_truck_E5" />
    <trip depart="22935.27" departLane="best" from="329505240#1" id="truck146" to="293115460#18" type="truck_truck_E5" />
    <trip depart="23092.36" departLane="best" departSpeed="max" from="396425746" id="truck147" to="314360433#9" type="truck_truck_E5" />
    <trip depart="23249.45" departLane="best" departSpeed="max" from="435546424#0" id="truck148" to="329876536#2" type="truck_truck_E5" />
    <trip depart="23406.55" departLane="best" from="302109830#0" id="truck149" to="24295136#21" type="truck_truck_E6" />
    <trip depart="23563.64" departLane="best" from="24295139#3" id="truck150" to="321572180#7" type="truck_truck_E5" />
    <trip depart="23720.73" departLane="best" from="344084913#8" id="truck151" to="293115460#8" type="truck_truck_E5" />
    <trip depart="23877.82" departLane="best" from="321572180#6" id="truck152" to="24295139#2" type="truck_truck_E5" />
    <trip depart="24034.91" departLane="best" from="118793921#1" id="truck153" to="24295139#7" type="truck_truck_E6" />
    <trip depart="24192.00" departLane="best" from="24295246#2" id="truck154" to="24295250#1" type="truck_truck_E6" />
    <trip depart="24349.09" departLane="best" departSpeed="max" from="317137449#0" id="truck155" to="152762229#4" type="truck_truck_E6" />
    <trip depart="24506.18" departLane="best" from="24295136#20" id="truck156" to="326569903#4" type="truck_truck_E5" />
    <trip depart="24663.27" departLane="best" from="284925148#0" id="truck157" to="24295097#1" type="truck_truck_E5" />
    <trip depart="24820.36" departLane="best" from="24305399#0" id="truck158" to="-133242880#0" type="truck_truck_E5" />
    <trip depart="24977.45" departLane="best" from="24305294#0" id="truck159" to="344084911" type="truck_truck_E4" />
    <trip depart="25134.55" departLane="best" from="401494444#12" id="truck160" to="522768610#8" type="truck_truck_E5" />
    <trip depart="25291.64" departLane="best" departSpeed="max" from="317137449#0" id="truck161" to="320601926#1" type="truck_truck_E6" />
    <trip depart="25448.73" departLane="best" from="293115457#0" id="truck162" to="-684284130" type="truck_truck_E4" />
    <trip depart="25605.82" departLane="best" from="24305286#10" id="truck163" to="326569837#5" type="truck_truck_E5" />
    <trip depart="25762.91" departLane="best" from="293115460#7" id="truck164" to="152762229#0" type="truck_truck_E6" />
    <trip depart="25920.00" departLane="best" departSpeed="max" from="279653481#0" id="truck165" to="317137449#17" type="truck_truck_E4" />
    <trip depart="26077.09" departLane="best" departSpeed="max" from="-24295097#1" id="truck166" to="324601502#0" type="truck_truck_E5" />
    <trip depart="26234.18" departLane="best" departSpeed="max" from="151073587#0" id="truck167" to="284927029#1" type="truck_truck_E6" />
    <trip depart="26391.27" departLane="best" from="24295136#11" id="truck168" to="24295250#1" type="truck_truck_E5" />
    <trip depart="26548.36" departLane="best" from="344084913#5" id="truck169" to="24305286#1" type="truck_truck_E5" />
    <trip depart="26705.45" departLane="best" from="24295139#6" id="truck170" to="118793923#2" type="truck_truck_E6" />
    <trip depart="26862.55" departLane="best" departSpeed="max" from="-24295097#1" id="truck171" to="314360433#5" type="truck_truck_E5" />
    <trip depart="27019.64" departLane="best" from="684284130" id="truck172" to="24305223#3" type="truck_truck_E2" />
    <trip depart="27176.73" departLane="best" from="324924047#2" id="truck173" to="344084911" type="truck_truck_E5" />
    <trip depart="27333.82" departLane="best" from="496739504#1" id="truck174" to="24267146#1" type="truck_truck_E6" />
    <trip depart="27490.91" departLane="best" departSpeed="max" from="-24295097#1" id="truck175" to="156115617#1" type="truck_truck_E5" />
    <trip depart="27648.00" departLane="best" departSpeed="max" from="133242880#0" id="truck176" to="324924047#2" type="truck_truck_E5" />
    <trip depart="27805.09" departLane="best" from="317137449#17" id="truck177" to="24295100#1" type="truck_truck_E5" />
    <trip depart="27962.18" departLane="best" from="360771086#7" id="truck178" to="522768611#1" type="truck_truck_E5" />
    <trip depart="28119.27" departLane="best" from="24305273#3" id="truck179" to="326569837#4" type="truck_truck_E5" />
    <trip depart="28276.36" departLane="best" from="496739504#5" id="truck180" to="24305294#0" type="truck_truck_E3" />
    <trip depart="28433.45" departLane="best" from="326569903#5" id="truck181" to="321572180#2" type="truck_truck_E5" />
    <trip depart="28590.55" departLane="best" from="118793923#4" id="truck182" to="344084913#4" type="truck_truck_E6" />
    <trip depart="28747.64" departLane="best" from="401494444#1" id="truck183" to="320601926#1" type="truck_truck_E4" />
    <trip depart="28904.73" departLane="best" departSpeed="max" from="133242880#0" id="truck184" to="633508215#3" type="truck_truck_E1" />
    <trip depart="29061.82" departLane="best" departSpeed="max" from="360771086#0" id="truck185" to="24305223#1" type="truck_truck_E4" />
    <trip depart="29218.91" departLane="best" departSpeed="max" from="284927032#0" id="truck186" to="24305282#0" type="truck_truck_E2" />
    <trip depart="29376.00" departLane="best" from="314360433#2" id="truck187" to="24295254#6" type="truck_truck_E6" />
    <trip depart="29533.09" departLane="best" from="401494444#1" id="truck188" to="360771086#3" type="truck_truck_E1" />
    <trip depart="29690.18" departLane="best" from="118793923#5" id="truck189" to="522768611#0" type="truck_truck_E5" />
    <trip depart="29847.27" departLane="best" from="327607339#2" id="truck190" to="279653481#1" type="truck_truck_E5" />
    <trip depart="30004.36" departLane="best" from="329505437#4" id="truck191" to="522768611#1" type="truck_truck_E6" />
    <trip depart="30161.45" departLane="best" departSpeed="max" from="317137449#0" id="truck192" to="293115457#3" type="truck_truck_E6" />
    <trip depart="30318.55" departLane="best" from="284927032#3" id="truck193" to="329505240#5" type="truck_truck_E5" />
    <trip depart="30475.64" departLane="best" from="24295246#0" id="truck194" to="401494444#15" type="truck_truck_E5" />
    <trip depart="30632.73" departLane="best" departSpeed="max" from="396425746" id="truck195" to="118793923#4" type="truck_truck_E6" />
    <trip depart="30789.82" departLane="best" departSpeed="max" from="435541876#0" id="truck196" to="24295136#17" type="truck_truck_E5" />
    <trip depart="30946.91" departLane="best" from="293115460#5" id="truck197" to="321544178" type="truck_truck_E4" />
    <trip depart="31104.00" departLane="best" from="401494444#1" id="truck198" to="172580997" type="truck_truck_E6" />
    <trip depart="31261.09" departLane="best" from="24295136#11" id="truck199" to="360771086#15" type="truck_truck_E6" />
    <trip depart="31575.27" departLane="best" departSpeed="max" from="326569955#0" id="truck201" to="24295139#3" type="truck_truck_E5" />
    <trip depart="31732.36" departLane="best" departSpeed="max" from="312662578#0" id="truck202" to="344084911" type="truck_truck_E4" />
    <trip depart="31889.45" departLane="best" departSpeed="max" from="312662578#0" id="truck203" to="360771086#13" type="truck_truck_E5" />
    <trip depart="32046.55" departLane="best" from="118793923#0" id="truck204" to="24295100#1" type="truck_truck_E2" />
    <trip depart="32203.64" departLane="best" departSpeed="max" from="326569955#0" id="truck205" to="24295246#0" type="truck_truck_E4" />
    <trip depart="32360.73" departLane="best" from="320249068#0" id="truck206" to="284927029#2" type="truck_truck_E3" />
    <trip depart="32517.82" departLane="best" departSpeed="max" from="315196302#0" id="truck207" to="24305399#1" type="truck_truck_E6" />
    <trip depart="32674.91" departLane="best" from="24295139#6" id="truck208" to="151181510#1" type="truck_truck_E5" />
    <trip depart="32832.00" departLane="best" from="24295097#0" id="truck209" to="151181510#1" type="truck_truck_E5" />
    <trip depart="32989.09" departLane="best" departSpeed="max" from="312662578#0" id="truck210" to="329505240#2" type="truck_truck_E4" />
    <trip depart="33146.18" departLane="best" from="522768610#6" id="truck211" to="302109830#0" type="truck_truck_E3" />
    <trip depart="33303.27" departLane="best" from="24295254#4" id="truck212" to="118793923#8" type="truck_truck_E5" />
    <trip depart="33460.36" departLane="best" departSpeed="max" from="315196302#0" id="truck213" to="24295139#2" type="truck_truck_E6" />
    <trip depart="33617.45" departLane="best" departSpeed="max" from="326569955#0" id="truck214" to="152762229#0" type="truck_truck_E3" />
    <trip depart="33774.55" departLane="best" from="401494444#5" id="truck215" to="293115460#11" type="truck_truck_E3" />
    <trip depart="33931.64" departLane="best" from="401494444#8" id="truck216" to="317137449#8" type="truck_truck_E5" />
    <trip depart="34088.73" departLane="best" from="156115617#6" id="truck217" to="118793918#4" type="truck_truck_E6" />
    <trip depart="34245.82" departLane="best" from="369135366#0" id="truck218" to="24305294#3" type="truck_truck_E5" />
    <trip depart="34402.91" departLane="best" from="118793920" id="truck219" to="321572180#3" type="truck_truck_E4" />
    <trip depart="34560.00" departLane="best" from="633508215#3" id="truck220" to="151181510#1" type="truck_truck_E5" />
    <trip depart="34717.09" departLane="best" from="360771086#10" id="truck221" to="24295100#1" type="truck_truck_E6" />
    <trip depart="34874.18" departLane="best" from="329876536#1" id="truck222" to="522768610#7" type="truck_truck_E5" />
    <trip depart="35031.27" departLane="best" from="24295136#1" id="truck223" to="24295097#1" type="truck_truck_E5" />
    <trip depart="35188.36" departLane="best" departSpeed="max" from="325447816#0" id="truck224" to="156115617#3" type="truck_truck_E5" />
    <trip depart="35345.45" departLane="best" from="156115617#1" id="truck225" to="118793922#3" type="truck_truck_E5" />
    <trip depart="35502.55" departLane="best" from="-24267146#0" id="truck226" to="284925148#1" type="truck_truck_E5" />
    <trip depart="35659.64" departLane="best" from="321396548#0" id="truck227" to="24295139#7" type="truck_truck_E5" />
    <trip depart="35816.73" departLane="best" from="24295136#20" id="truck228" to="327607511#1" type="truck_truck_E1" />
    <trip depart="35973.82" departLane="best" from="326569903#4" id="truck229" to="496739504#3" type="truck_truck_E5" />
    <trip depart="36130.91" departLane="best" from="360771086#1" id="truck230" to="321572180#1" type="truck_truck_E5" />
    <trip depart="36288.00" departLane="best" departSpeed="max" from="325447816#0" id="truck231" to="522768610#0" type="truck_truck_E6" />
    <trip depart="36445.09" departLane="best" departSpeed="max" from="284927032#0" id="truck232" to="314360433#7" type="truck_truck_E5" />
    <trip depart="36759.27" departLane="best" departSpeed="max" from="24305223#0" id="truck234" to="151181510#1" type="truck_truck_E5" />
    <trip depart="36916.36" departLane="best" from="436478051#2" id="truck235" to="293115460#18" type="truck_truck_E5" />
    <trip depart="37073.45" departLane="best" departSpeed="max" from="314360433#0" id="truck236" to="118793923#1" type="truck_truck_E5" />
    <trip depart="37230.55" departLane="best" from="118793922#3" id="truck237" to="522768611#1" type="truck_truck_E2" />
    <trip depart="37387.64" departLane="best" departSpeed="max" from="396425746" id="truck238" to="317137449#9" type="truck_truck_E5" />
    <trip depart="37544.73" departLane="best" from="-646591409" id="truck239" to="344084911" type="truck_truck_E6" />
    <trip depart="37701.82" departLane="best" from="293115460#8" id="truck240" to="324601502#6" type="truck_truck_E5" />
    <trip depart="37858.91" departLane="best" departSpeed="max" from="436277095#0" id="truck241" to="172580997" type="truck_truck_E5" />
    <trip depart="38016.00" departLane="best" departSpeed="max" from="312662578#0" id="truck242" to="118793923#6" type="truck_truck_E5" />