<?xml version="1.0" encoding="UTF-8"?>

<!-- generated on Tue Jul 30 14:35:26 2019 by Eclipse SUMO Version v1_2_0+0622-cbc8645
-->

<configuration xmlns:xsi="http://www.w3.org/2001/XMLSchema-instance" xsi:noNamespaceSchemaLocation="http://sumo.dlr.de/xsd/sumoConfiguration.xsd">

    <input>
        <net-file value="osm.net.xml"/>
        <route-files value="osm.truck.trips.xml,osm.passenger.trips.xml,osm.bus.trips.xml,osm.motorcycle.trips.xml"/>
    </input>

    <processing>
        <ignore-route-errors value="true"/>
        <threads value="4"/>
        <ignore-accidents value="true"/>
    </processing>

    <routing>
        <device.rerouting.adaptation-steps value="180"/>
        <device.rerouting.threads value="8"/>
        <routing-algorithm value="dijkstra"/>
    </routing>

    <report>
        <verbose value="true"/>
        <duration-log.statistics value="false"/>
        <no-step-log value="false"/>
        <no-warnings value='true'/>
    </report>

</configuration>
