<?xml version="1.0" encoding="UTF-8"?>

<!-- generated on Wed Oct 30 14:47:18 2019 by Eclipse SUMO duarouter Version v1_2_0+0622-cbc8645
<configuration xmlns:xsi="http://www.w3.org/2001/XMLSchema-instance" xsi:noNamespaceSchemaLocation="http://sumo.dlr.de/xsd/duarouterConfiguration.xsd">

    <input>
        <net-file value="osm.net.xml"/>
        <route-files value="osm.bus.trips.xml"/>
    </input>

    <output>
        <output-file value="osm.bus.trips.xml.tmp"/>
        <write-trips value="true"/>
    </output>

    <time>
        <begin value="0"/>
        <end value="86400.0"/>
    </time>

    <report>
        <no-warnings value="true"/>
        <ignore-errors value="true"/>
        <no-step-log value="true"/>
    </report>

</configuration>
-->

<routes xmlns:xsi="http://www.w3.org/2001/XMLSchema-instance" xsi:noNamespaceSchemaLocation="http://sumo.dlr.de/xsd/routes_file.xsd">
    <vType id="bus_bus" vClass="bus"/>
    <trip id="bus0" type="bus_bus" depart="0.00" departLane="best" departSpeed="max" from="435546424#0" to="118793923#4"/>
    <trip id="bus1" type="bus_bus" depart="314.18" departLane="best" from="24295136#14" to="293115460#18"/>
    <trip id="bus3" type="bus_bus" depart="942.55" departLane="best" from="360771086#20" to="327607339#0"/>
    <trip id="bus4" type="bus_bus" depart="1256.73" departLane="best" from="496739504#5" to="24295254#6"/>
    <trip id="bus5" type="bus_bus" depart="1570.91" departLane="best" from="118793923#0" to="118793923#8"/>
    <trip id="bus6" type="bus_bus" depart="1885.09" departLane="best" departSpeed="max" from="401494444#0" to="320601926#1"/>
    <trip id="bus7" type="bus_bus" depart="2199.27" departLane="best" from="360771086#21" to="329505240#4"/>
    <trip id="bus8" type="bus_bus" depart="2513.45" departLane="best" from="315196302#1" to="571354729"/>
    <trip id="bus10" type="bus_bus" depart="3141.82" departLane="best" departSpeed="max" from="396425746" to="321544196#3"/>
    <trip id="bus11" type="bus_bus" depart="3456.00" departLane="best" from="401494444#2" to="320249039#0"/>
    <trip id="bus12" type="bus_bus" depart="3770.18" departLane="best" from="327607339#1" to="111940154#2"/>
    <trip id="bus13" type="bus_bus" depart="4084.36" departLane="best" from="118793923#3" to="24295139#4"/>
    <trip id="bus14" type="bus_bus" depart="4398.55" departLane="best" from="324601502#1" to="24305273#5"/>
    <trip id="bus15" type="bus_bus" depart="4712.73" departLane="best" from="24305365#4" to="24295097#1"/>
    <trip id="bus16" type="bus_bus" depart="5026.91" departLane="best" from="156115617#0" to="329505240#4"/>
    <trip id="bus17" type="bus_bus" depart="5341.09" departLane="best" from="633508213#5" to="321572180#8"/>
    <trip id="bus18" type="bus_bus" depart="5655.27" departLane="best" from="317137449#12" to="326569902#4"/>
    <trip id="bus19" type="bus_bus" depart="5969.45" departLane="best" from="24295136#11" to="522768610#5"/>
    <trip id="bus20" type="bus_bus" depart="6283.64" departLane="best" departSpeed="max" from="435541876#0" to="24295246#4"/>
    <trip id="bus21" type="bus_bus" depart="6597.82" departLane="best" departSpeed="max" from="325447816#0" to="24305294#0"/>
    <trip id="bus22" type="bus_bus" depart="6912.00" departLane="best" departSpeed="max" from="436277095#0" to="284925148#1"/>
    <trip id="bus23" type="bus_bus" depart="7226.18" departLane="best" from="646591409" to="293115460#3"/>
    <trip id="bus24" type="bus_bus" depart="7540.36" departLane="best" from="360771086#10" to="24305370#1"/>
    <trip id="bus25" type="bus_bus" depart="7854.55" departLane="best" from="118793918#3" to="24305286#10"/>
    <trip id="bus26" type="bus_bus" depart="8168.73" departLane="best" from="646591409" to="302109830#2"/>
    <trip id="bus27" type="bus_bus" depart="8482.91" departLane="best" from="522768610#4" to="401494444#3"/>
    <trip id="bus28" type="bus_bus" depart="8797.09" departLane="best" departSpeed="max" from="-24267146#1" to="329505240#0"/>
    <trip id="bus29" type="bus_bus" depart="9111.27" departLane="best" from="326569902#5" to="314360433#4"/>
    <trip id="bus30" type="bus_bus" depart="9425.45" departLane="best" from="24295246#0" to="321572180#8"/>
    <trip id="bus31" type="bus_bus" depart="9739.64" departLane="best" from="129281458" to="279653481#1"/>
    <trip id="bus32" type="bus_bus" depart="10053.82" departLane="best" from="293115460#15" to="522768610#8"/>
    <trip id="bus33" type="bus_bus" depart="10368.00" departLane="best" departSpeed="max" from="435541876#0" to="24295136#4"/>
    <trip id="bus34" type="bus_bus" depart="10682.18" departLane="best" departSpeed="max" from="436277095#0" to="435541876#1"/>
    <trip id="bus35" type="bus_bus" depart="10996.36" departLane="best" from="24305223#1" to="321572180#8"/>
    <trip id="bus36" type="bus_bus" depart="11310.55" departLane="best" from="321544196#3" to="156115617#1"/>
    <trip id="bus37" type="bus_bus" depart="11624.73" departLane="best" departSpeed="max" from="360771086#0" to="314360433#1"/>
    <trip id="bus38" type="bus_bus" depart="11938.91" departLane="best" from="-133242880#1" to="24295250#1"/>
    <trip id="bus39" type="bus_bus" depart="12253.09" departLane="best" departSpeed="max" from="-24295097#1" to="496739504#5"/>
    <trip id="bus40" type="bus_bus" depart="12567.27" departLane="best" from="24305273#1" to="118793920"/>
    <trip id="bus41" type="bus_bus" depart="12881.45" departLane="best" departSpeed="max" from="435541876#0" to="522768610#7"/>
    <trip id="bus42" type="bus_bus" depart="13195.64" departLane="best" from="118793921#4" to="293115460#0"/>
    <trip id="bus43" type="bus_bus" depart="13509.82" departLane="best" from="344084913#8" to="152762229#1"/>
    <trip id="bus44" type="bus_bus" depart="13824.00" departLane="best" departSpeed="max" from="284927032#0" to="24295097#1"/>
    <trip id="bus45" type="bus_bus" depart="14138.18" departLane="best" departSpeed="max" from="317137449#0" to="329505240#4"/>
    <trip id="bus46" type="bus_bus" depart="14452.36" departLane="best" departSpeed="max" from="24295123" to="24295246#2"/>
    <trip id="bus47" type="bus_bus" depart="14766.55" departLane="best" from="633508215#3" to="324601502#6"/>
    <trip id="bus48" type="bus_bus" depart="15080.73" departLane="best" from="24295136#2" to="24295100#1"/>
    <trip id="bus49" type="bus_bus" depart="15394.91" departLane="best" from="118793919#3" to="321572180#4"/>
    <trip id="bus50" type="bus_bus" depart="15709.09" departLane="best" from="24295136#8" to="324924047#2"/>
    <trip id="bus51" type="bus_bus" depart="16023.27" departLane="best" from="436277095#9" to="317137449#7"/>
    <trip id="bus52" type="bus_bus" depart="16337.45" departLane="best" from="293115460#9" to="344372307#1"/>
    <trip id="bus53" type="bus_bus" depart="16651.64" departLane="best" departSpeed="max" from="284927032#0" to="284927029#2"/>
    <trip id="bus54" type="bus_bus" depart="16965.82" departLane="best" from="329505240#5" to="326569837#1"/>
    <trip id="bus55" type="bus_bus" depart="17280.00" departLane="best" from="571354729" to="118793923#8"/>
    <trip id="bus56" type="bus_bus" depart="17594.18" departLane="best" from="279653481#1" to="24295254#6"/>
    <trip id="bus57" type="bus_bus" depart="17908.36" departLane="best" from="401494444#2" to="24295136#2"/>
    <trip id="bus58" type="bus_bus" depart="18222.55" departLane="best" from="24267146#0" to="284925148#0"/>
    <trip id="bus59" type="bus_bus" depart="18536.73" departLane="best" from="284927029#1" to="24295139#4"/>
    <trip id="bus60" type="bus_bus" depart="18850.91" departLane="best" from="24295139#4" to="496739504#3"/>
    <trip id="bus61" type="bus_bus" depart="19165.09" departLane="best" from="317137449#1" to="118793918#3"/>
    <trip id="bus63" type="bus_bus" depart="19793.45" departLane="best" from="522768610#3" to="496739504#4"/>
    <trip id="bus64" type="bus_bus" depart="20107.64" departLane="best" departSpeed="max" from="401494444#0" to="156115617#7"/>
    <trip id="bus65" type="bus_bus" depart="20421.82" departLane="best" departSpeed="max" from="312662578#0" to="24295097#1"/>
    <trip id="bus66" type="bus_bus" depart="20736.00" departLane="best" departSpeed="max" from="279653481#0" to="118793920"/>
    <trip id="bus67" type="bus_bus" depart="21050.18" departLane="best" from="24305370#1" to="633508215#4"/>
    <trip id="bus68" type="bus_bus" depart="21364.36" departLane="best" from="24295147#1" to="344372307#0"/>
    <trip id="bus69" type="bus_bus" depart="21678.55" departLane="best" from="293115460#16" to="24305370#1"/>
    <trip id="bus70" type="bus_bus" depart="21992.73" departLane="best" from="496739504#5" to="633508215#4"/>
    <trip id="bus71" type="bus_bus" depart="22306.91" departLane="best" from="317137449#12" to="329505082"/>
    <trip id="bus72" type="bus_bus" depart="22621.09" departLane="best" from="152762229#2" to="24295146#0"/>
    <trip id="bus73" type="bus_bus" depart="22935.27" departLane="best" from="522768610#3" to="320249039#2"/>
    <trip id="bus74" type="bus_bus" depart="23249.45" departLane="best" departSpeed="max" from="317137449#0" to="344084911"/>
    <trip id="bus75" type="bus_bus" depart="23563.64" departLane="best" from="111940154#1" to="320249068#2"/>
    <trip id="bus76" type="bus_bus" depart="23877.82" departLane="best" departSpeed="max" from="314360433#0" to="401494444#15"/>
    <trip id="bus77" type="bus_bus" depart="24192.00" departLane="best" from="152762229#4" to="522768611#0"/>
    <trip id="bus78" type="bus_bus" depart="24506.18" departLane="best" from="118793921#2" to="172580997"/>
    <trip id="bus79" type="bus_bus" depart="24820.36" departLane="best" from="321396548#0" to="321544196#3"/>
    <trip id="bus80" type="bus_bus" depart="25134.55" departLane="best" departSpeed="max" from="24295123" to="327607512#0"/>
    <trip id="bus81" type="bus_bus" depart="25448.73" departLane="best" from="24305273#5" to="344084911"/>
    <trip id="bus82" type="bus_bus" depart="25762.91" departLane="best" from="118793920" to="24295097#1"/>
    <trip id="bus84" type="bus_bus" depart="26391.27" departLane="best" from="24305365#4" to="156115617#3"/>
    <trip id="bus85" type="bus_bus" depart="26705.45" departLane="best" departSpeed="max" from="396425746" to="327607511#0"/>
    <trip id="bus86" type="bus_bus" depart="27019.64" departLane="best" from="321544196#4" to="633508215#4"/>
    <trip id="bus87" type="bus_bus" depart="27333.82" departLane="best" departSpeed="max" from="325447816#0" to="-133242880#0"/>
    <trip id="bus88" type="bus_bus" depart="27648.00" departLane="best" from="360771086#6" to="24295146#2"/>
    <trip id="bus89" type="bus_bus" depart="27962.18" departLane="best" departSpeed="max" from="325447816#0" to="522768610#3"/>
    <trip id="bus90" type="bus_bus" depart="28276.36" departLane="best" departSpeed="max" from="151073587#0" to="151181510#1"/>
    <trip id="bus92" type="bus_bus" depart="28904.73" departLane="best" from="329505240#0" to="24295097#0"/>
    <trip id="bus93" type="bus_bus" depart="29218.91" departLane="best" departSpeed="max" from="312662578#0" to="436287845#0"/>
    <trip id="bus94" type="bus_bus" depart="29533.09" departLane="best" departSpeed="max" from="401494444#0" to="118793923#7"/>
    <trip id="bus95" type="bus_bus" depart="29847.27" departLane="best" departSpeed="max" from="284927032#0" to="24295139#3"/>
    <trip id="bus96" type="bus_bus" depart="30161.45" departLane="best" from="-24267146#0" to="344084913#3"/>
    <trip id="bus97" type="bus_bus" depart="30475.64" departLane="best" from="324601502#3" to="24295136#21"/>
    <trip id="bus98" type="bus_bus" depart="30789.82" departLane="best" departSpeed="max" from="284927032#0" to="-133242880#0"/>
    <trip id="bus99" type="bus_bus" depart="31104.00" departLane="best" from="118793921#0" to="436277095#3"/>
    <trip id="bus100" type="bus_bus" depart="31418.18" departLane="best" from="435546424#1" to="314360433#8"/>
    <trip id="bus101" type="bus_bus" depart="31732.36" departLane="best" from="24305273#1" to="436287845#0"/>
    <trip id="bus102" type="bus_bus" depart="32046.55" departLane="best" departSpeed="max" from="435546424#0" to="24295097#1"/>
    <trip id="bus103" type="bus_bus" depart="32360.73" departLane="best" from="24295139#4" to="118793923#8"/>
    <trip id="bus104" type="bus_bus" depart="32674.91" departLane="best" departSpeed="max" from="360771086#0" to="436277095#3"/>
    <trip id="bus106" type="bus_bus" depart="33303.27" departLane="best" departSpeed="max" from="-24295097#1" to="329505437#0"/>
    <trip id="bus107" type="bus_bus" depart="33617.45" departLane="best" from="24305286#1" to="496739504#7"/>
    <trip id="bus108" type="bus_bus" depart="33931.64" departLane="best" departSpeed="max" from="360771086#0" to="129281459#0"/>
    <trip id="bus109" type="bus_bus" depart="34245.82" departLane="best" from="360771086#14" to="24295100#1"/>
    <trip id="bus110" type="bus_bus" depart="34560.00" departLane="best" from="324601502#6" to="24305294#3"/>
    <trip id="bus112" type="bus_bus" depart="35188.36" departLane="best" from="522768610#3" to="156115617#9"/>
    <trip id="bus113" type="bus_bus" depart="35502.55" departLane="best" from="522768610#0" to="24295136#5"/>
    <trip id="bus114" type="bus_bus" depart="35816.73" departLane="best" from="118793923#7" to="279653481#1"/>
    <trip id="bus115" type="bus_bus" depart="36130.91" departLane="best" from="329505240#5" to="24295246#3"/>
    <trip id="bus116" type="bus_bus" depart="36445.09" departLane="best" from="321544196#2" to="293115460#4"/>
    <trip id="bus117" type="bus_bus" depart="36759.27" departLane="best" from="24305399#2" to="317137449#9"/>
    <trip id="bus119" type="bus_bus" depart="37387.64" departLane="best" from="-133242880#1" to="496739504#4"/>
    <trip id="bus120" type="bus_bus" depart="37701.82" departLane="best" departSpeed="max" from="317137449#0" to="329505082"/>
    <trip id="bus121" type="bus_bus" depart="38016.00" departLane="best" from="24305273#4" to="401494444#15"/>
    <trip id="bus122" type="bus_bus" depart="38330.18" departLane="best" from="329505240#1" to="24295146#2"/>
    <trip id="bus123" type="bus_bus" depart="38644.36" departLane="best" from="279653481#1" to="24295146#0"/>
    <trip id="bus124" type="bus_bus" depart="38958.55" departLane="best" departSpeed="max" from="133242880#0" to="24305370#0"/>
    <trip id="bus125" type="bus_bus" depart="39272.73" departLane="best" departSpeed="max" from="435546424#0" to="321544196#2"/>
    <trip id="bus126" type="bus_bus" depart="39586.91" departLane="best" departSpeed="max" from="284927032#0" to="320249039#2"/>
    <trip id="bus127" type="bus_bus" depart="39901.09" departLane="best" departSpeed="max" from="325447816#0" to="284927029#2"/>
    <trip id="bus128" type="bus_bus" depart="40215.27" departLane="best" from="293115457#2" to="24295097#1"/>
    <trip id="bus129" type="bus_bus" depart="40529.45" departLane="best" from="293115460#9" to="436287845#0"/>
    <trip id="bus130" type="bus_bus" depart="40843.64" departLane="best" from="360771086#14" to="156115617#9"/>
    <trip id="bus131" type="bus_bus" depart="41157.82" departLane="best" from="118793921#4" to="293115460#6"/>
    <trip id="bus132" type="bus_bus" depart="41472.00" departLane="best" from="360771086#7" to="344084911"/>
    <trip id="bus133" type="bus_bus" depart="41786.18" departLane="best" from="326569902#0" to="24295100#1"/>
    <trip id="bus134" type="bus_bus" depart="42100.36" departLane="best" departSpeed="max" from="24295123" to="-571354729"/>
    <trip id="bus135" type="bus_bus" depart="42414.55" departLane="best" from="401494444#1" to="118793922#0"/>
    <trip id="bus136" type="bus_bus" depart="42728.73" departLane="best" from="279653481#7" to="321572180#3"/>
    <trip id="bus137" type="bus_bus" depart="43042.91" departLane="best" from="24295100#0" to="326569903#5"/>
    <trip id="bus138" type="bus_bus" depart="43357.09" departLane="best" departSpeed="max" from="314360433#0" to="24295136#17"/>
    <trip id="bus139" type="bus_bus" depart="43671.27" departLane="best" departSpeed="max" from="325447816#0" to="-133242880#0"/>
    <trip id="bus140" type="bus_bus" depart="43985.45" departLane="best" from="156115617#2" to="522768610#8"/>
    <trip id="bus141" type="bus_bus" depart="44299.64" departLane="best" from="314360433#7" to="118793918#3"/>
    <trip id="bus142" type="bus_bus" depart="44613.82" departLane="best" from="24295139#4" to="401494444#15"/>
    <trip id="bus143" type="bus_bus" depart="44928.00" departLane="best" from="293115460#17" to="360771086#19"/>
    <trip id="bus144" type="bus_bus" depart="45242.18" departLane="best" from="321396548#0" to="522768610#8"/>
    <trip id="bus145" type="bus_bus" depart="45556.36" departLane="best" from="435545285" to="321544188"/>
    <trip id="bus146" type="bus_bus" depart="45870.55" departLane="best" from="329505240#1" to="293115460#18"/>
    <trip id="bus147" type="bus_bus" depart="46184.73" departLane="best" departSpeed="max" from="396425746" to="314360433#9"/>
    <trip id="bus148" type="bus_bus" depart="46498.91" departLane="best" departSpeed="max" from="435546424#0" to="329876536#2"/>
    <trip id="bus149" type="bus_bus" depart="46813.09" departLane="best" from="302109830#0" to="24295136#21"/>
    <trip id="bus150" type="bus_bus" depart="47127.27" departLane="best" from="24295139#3" to="321572180#7"/>
    <trip id="bus151" type="bus_bus" depart="47441.45" departLane="best" from="344084913#8" to="293115460#8"/>
    <trip id="bus152" type="bus_bus" depart="47755.64" departLane="best" from="321572180#6" to="24295139#2"/>
    <trip id="bus153" type="bus_bus" depart="48069.82" departLane="best" from="118793921#1" to="24295139#7"/>
    <trip id="bus154" type="bus_bus" depart="48384.00" departLane="best" from="24295246#2" to="24295250#1"/>
    <trip id="bus155" type="bus_bus" depart="48698.18" departLane="best" departSpeed="max" from="317137449#0" to="152762229#4"/>
    <trip id="bus156" type="bus_bus" depart="49012.36" departLane="best" from="24295136#20" to="326569903#4"/>
    <trip id="bus157" type="bus_bus" depart="49326.55" departLane="best" from="284925148#0" to="24295097#1"/>
    <trip id="bus158" type="bus_bus" depart="49640.73" departLane="best" from="24305399#0" to="-133242880#0"/>
    <trip id="bus159" type="bus_bus" depart="49954.91" departLane="best" from="24305294#0" to="344084911"/>
    <trip id="bus160" type="bus_bus" depart="50269.09" departLane="best" from="401494444#12" to="522768610#8"/>
    <trip id="bus161" type="bus_bus" depart="50583.27" departLane="best" departSpeed="max" from="317137449#0" to="320601926#1"/>
    <trip id="bus162" type="bus_bus" depart="50897.45" departLane="best" from="293115457#0" to="-684284130"/>
    <trip id="bus163" type="bus_bus" depart="51211.64" departLane="best" from="24305286#10" to="326569837#5"/>
    <trip id="bus164" type="bus_bus" depart="51525.82" departLane="best" from="293115460#7" to="152762229#0"/>
    <trip id="bus165" type="bus_bus" depart="51840.00" departLane="best" departSpeed="max" from="279653481#0" to="317137449#17"/>
    <trip id="bus166" type="bus_bus" depart="52154.18" departLane="best" departSpeed="max" from="-24295097#1" to="324601502#0"/>
    <trip id="bus167" type="bus_bus" depart="52468.36" departLane="best" departSpeed="max" from="151073587#0" to="284927029#1"/>
    <trip id="bus168" type="bus_bus" depart="52782.55" departLane="best" from="24295136#11" to="24295250#1"/>
    <trip id="bus169" type="bus_bus" depart="53096.73" departLane="best" from="344084913#5" to="24305286#1"/>
    <trip id="bus170" type="bus_bus" depart="53410.91" departLane="best" from="24295139#6" to="118793923#2"/>
    <trip id="bus171" type="bus_bus" depart="53725.09" departLane="best" departSpeed="max" from="-24295097#1" to="314360433#5"/>
    <trip id="bus172" type="bus_bus" depart="54039.27" departLane="best" from="684284130" to="24305223#3"/>
    <trip id="bus173" type="bus_bus" depart="54353.45" departLane="best" from="324924047#2" to="344084911"/>
    <trip id="bus174" type="bus_bus" depart="54667.64" departLane="best" from="496739504#1" to="24267146#1"/>
    <trip id="bus175" type="bus_bus" depart="54981.82" departLane="best" departSpeed="max" from="-24295097#1" to="156115617#1"/>
    <trip id="bus176" type="bus_bus" depart="55296.00" departLane="best" departSpeed="max" from="133242880#0" to="324924047#2"/>
    <trip id="bus177" type="bus_bus" depart="55610.18" departLane="best" from="317137449#17" to="24295100#1"/>
    <trip id="bus178" type="bus_bus" depart="55924.36" departLane="best" from="360771086#7" to="522768611#1"/>
    <trip id="bus179" type="bus_bus" depart="56238.55" departLane="best" from="24305273#3" to="326569837#4"/>
    <trip id="bus180" type="bus_bus" depart="56552.73" departLane="best" from="496739504#5" to="24305294#0"/>
    <trip id="bus181" type="bus_bus" depart="56866.91" departLane="best" from="326569903#5" to="321572180#2"/>
    <trip id="bus182" type="bus_bus" depart="57181.09" departLane="best" from="118793923#4" to="344084913#4"/>
    <trip id="bus183" type="bus_bus" depart="57495.27" departLane="best" from="401494444#1" to="320601926#1"/>
    <trip id="bus184" type="bus_bus" depart="57809.45" departLane="best" departSpeed="max" from="133242880#0" to="633508215#3"/>
    <trip id="bus185" type="bus_bus" depart="58123.64" departLane="best" departSpeed="max" from="360771086#0" to="24305223#1"/>
    <trip id="bus186" type="bus_bus" depart="58437.82" departLane="best" departSpeed="max" from="284927032#0" to="24305282#0"/>
    <trip id="bus187" type="bus_bus" depart="58752.00" departLane="best" from="314360433#2" to="24295254#6"/>
    <trip id="bus188" type="bus_bus" depart="59066.18" departLane="best" from="401494444#1" to="360771086#3"/>
    <trip id="bus189" type="bus_bus" depart="59380.36" departLane="best" from="118793923#5" to="522768611#0"/>
    <trip id="bus190" type="bus_bus" depart="59694.55" departLane="best" from="327607339#2" to="279653481#1"/>
    <trip id="bus191" type="bus_bus" depart="60008.73" departLane="best" from="329505437#4" to="522768611#1"/>
    <trip id="bus192" type="bus_bus" depart="60322.91" departLane="best" departSpeed="max" from="317137449#0" to="293115457#3"/>
    <trip id="bus193" type="bus_bus" depart="60637.09" departLane="best" from="284927032#3" to="329505240#5"/>
    <trip id="bus194" type="bus_bus" depart="60951.27" departLane="best" from="24295246#0" to="401494444#15"/>
    <trip id="bus195" type="bus_bus" depart="61265.45" departLane="best" departSpeed="max" from="396425746" to="118793923#4"/>
    <trip id="bus196" type="bus_bus" depart="61579.64" departLane="best" departSpeed="max" from="435541876#0" to="24295136#17"/>
    <trip id="bus197" type="bus_bus" depart="61893.82" departLane="best" from="293115460#5" to="321544178"/>
    <trip id="bus198" type="bus_bus" depart="62208.00" departLane="best" from="401494444#1" to="172580997"/>
    <trip id="bus199" type="bus_bus" depart="62522.18" departLane="best" from="24295136#11" to="360771086#15"/>
    <trip id="bus201" type="bus_bus" depart="63150.55" departLane="best" departSpeed="max" from="326569955#0" to="24295139#3"/>
    <trip id="bus202" type="bus_bus" depart="63464.73" departLane="best" departSpeed="max" from="312662578#0" to="344084911"/>
    <trip id="bus203" type="bus_bus" depart="63778.91" departLane="best" departSpeed="max" from="312662578#0" to="360771086#13"/>
    <trip id="bus204" type="bus_bus" depart="64093.09" departLane="best" from="118793923#0" to="24295100#1"/>
    <trip id="bus205" type="bus_bus" depart="64407.27" departLane="best" departSpeed="max" from="326569955#0" to="24295246#0"/>
    <trip id="bus206" type="bus_bus" depart="64721.45" departLane="best" from="320249068#0" to="284927029#2"/>
    <trip id="bus207" type="bus_bus" depart="65035.64" departLane="best" departSpeed="max" from="315196302#0" to="24305399#1"/>
    <trip id="bus208" type="bus_bus" depart="65349.82" departLane="best" from="24295139#6" to="151181510#1"/>
    <trip id="bus209" type="bus_bus" depart="65664.00" departLane="best" from="24295097#0" to="151181510#1"/>
    <trip id="bus210" type="bus_bus" depart="65978.18" departLane="best" departSpeed="max" from="312662578#0" to="329505240#2"/>
    <trip id="bus211" type="bus_bus" depart="66292.36" departLane="best" from="522768610#6" to="302109830#0"/>
    <trip id="bus212" type="bus_bus" depart="66606.55" departLane="best" from="24295254#4" to="118793923#8"/>
    <trip id="bus213" type="bus_bus" depart="66920.73" departLane="best" departSpeed="max" from="315196302#0" to="24295139#2"/>
    <trip id="bus214" type="bus_bus" depart="67234.91" departLane="best" departSpeed="max" from="326569955#0" to="152762229#0"/>
    <trip id="bus215" type="bus_bus" depart="67549.09" departLane="best" from="401494444#5" to="293115460#11"/>
    <trip id="bus216" type="bus_bus" depart="67863.27" departLane="best" from="401494444#8" to="317137449#8"/>
    <trip id="bus217" type="bus_bus" depart="68177.45" departLane="best" from="156115617#6" to="118793918#4"/>
    <trip id="bus218" type="bus_bus" depart="68491.64" departLane="best" from="369135366#0" to="24305294#3"/>
    <trip id="bus219" type="bus_bus" depart="68805.82" departLane="best" from="118793920" to="321572180#3"/>
    <trip id="bus220" type="bus_bus" depart="69120.00" departLane="best" from="633508215#3" to="151181510#1"/>
    <trip id="bus221" type="bus_bus" depart="69434.18" departLane="best" from="360771086#10" to="24295100#1"/>
    <trip id="bus222" type="bus_bus" depart="69748.36" departLane="best" from="329876536#1" to="522768610#7"/>
    <trip id="bus223" type="bus_bus" depart="70062.55" departLane="best" from="24295136#1" to="24295097#1"/>
    <trip id="bus224" type="bus_bus" depart="70376.73" departLane="best" departSpeed="max" from="325447816#0" to="156115617#3"/>
    <trip id="bus225" type="bus_bus" depart="70690.91" departLane="best" from="156115617#1" to="118793922#3"/>
    <trip id="bus226" type="bus_bus" depart="71005.09" departLane="best" from="-24267146#0" to="284925148#1"/>
    <trip id="bus227" type="bus_bus" depart="71319.27" departLane="best" from="321396548#0" to="24295139#7"/>
    <trip id="bus228" type="bus_bus" depart="71633.45" departLane="best" from="24295136#20" to="327607511#1"/>
    <trip id="bus229" type="bus_bus" depart="71947.64" departLane="best" from="326569903#4" to="496739504#3"/>
    <trip id="bus230" type="bus_bus" depart="72261.82" departLane="best" from="360771086#1" to="321572180#1"/>
    <trip id="bus231" type="bus_bus" depart="72576.00" departLane="best" departSpeed="max" from="325447816#0" to="522768610#0"/>
    <trip id="bus232" type="bus_bus" depart="72890.18" departLane="best" departSpeed="max" from="284927032#0" to="314360433#7"/>
    <trip id="bus234" type="bus_bus" depart="73518.55" departLane="best" departSpeed="max" from="24305223#0" to="151181510#1"/>
    <trip id="bus235" type="bus_bus" depart="73832.73" departLane="best" from="436478051#2" to="293115460#18"/>
    <trip id="bus236" type="bus_bus" depart="74146.91" departLane="best" departSpeed="max" from="314360433#0" to="118793923#1"/>
    <trip id="bus237" type="bus_bus" depart="74461.09" departLane="best" from="118793922#3" to="522768611#1"/>
    <trip id="bus238" type="bus_bus" depart="74775.27" departLane="best" departSpeed="max" from="396425746" to="317137449#9"/>
    <trip id="bus239" type="bus_bus" depart="75089.45" departLane="best" from="-646591409" to="344084911"/>
    <trip id="bus240" type="bus_bus" depart="75403.64" departLane="best" from="293115460#8" to="324601502#6"/>
    <trip id="bus241" type="bus_bus" depart="75717.82" departLane="best" departSpeed="max" from="436277095#0" to="172580997"/>
    <trip id="bus242" type="bus_bus" depart="76032.00" departLane="best" departSpeed="max" from="312662578#0" to="118793923#6"/>
    <trip id="bus243" type="bus_bus" depart="76346.18" departLane="best" from="24305286#9" to="24295254#4"/>
    <trip id="bus244" type="bus_bus" depart="76660.36" departLane="best" from="24305286#0" to="326569903#4"/>
    <trip id="bus246" type="bus_bus" depart="77288.73" departLane="best" from="293115460#16" to="24295246#4"/>
    <trip id="bus247" type="bus_bus" depart="77602.91" departLane="best" from="24305282#0" to="522768611#1"/>
    <trip id="bus248" type="bus_bus" depart="77917.09" departLane="best" from="633508213#1" to="324601502#7"/>
    <trip id="bus249" type="bus_bus" depart="78231.27" departLane="best" departSpeed="max" from="317137449#0" to="24305365#4"/>
    <trip id="bus250" type="bus_bus" depart="78545.45" departLane="best" from="344084913#3" to="321572180#1"/>
    <trip id="bus251" type="bus_bus" depart="78859.64" departLane="best" from="344084913#4" to="24295097#0"/>
    <trip id="bus252" type="bus_bus" depart="79173.82" departLane="best" from="317137449#1" to="496739504#5"/>
    <trip id="bus253" type="bus_bus" depart="79488.00" departLane="best" departSpeed="max" from="133242880#0" to="571354729"/>
    <trip id="bus254" type="bus_bus" depart="79802.18" departLane="best" from="321544196#3" to="24295136#14"/>
    <trip id="bus256" type="bus_bus" depart="80430.55" departLane="best" from="317137449#10" to="118793923#7"/>
    <trip id="bus257" type="bus_bus" depart="80744.73" departLane="best" from="293115460#4" to="151181510#1"/>
    <trip id="bus258" type="bus_bus" depart="81058.91" departLane="best" departSpeed="max" from="396425746" to="293115460#18"/>
    <trip id="bus259" type="bus_bus" depart="81373.09" departLane="best" from="329505240#0" to="293115460#3"/>
    <trip id="bus260" type="bus_bus" depart="81687.27" departLane="best" from="24295246#3" to="369135366#1"/>
    <trip id="bus261" type="bus_bus" depart="82001.45" departLane="best" from="24295246#4" to="360771086#1"/>
    <trip id="bus262" type="bus_bus" depart="82315.64" departLane="best" from="314360433#2" to="360771086#3"/>