<?xml version="1.0" encoding="UTF-8"?>

<!-- generated on Wed Oct 30 14:47:18 2019 by Eclipse SUMO duarouter Version v1_2_0+0622-cbc8645
<configuration xmlns:xsi="http://www.w3.org/2001/XMLSchema-instance" xsi:noNamespaceSchemaLocation="http://sumo.dlr.de/xsd/duarouterConfiguration.xsd">

    <input>
        <net-file value="osm.net.xml"/>
        <route-files value="osm.bus.trips.xml"/>
    </input>

    <output>
        <output-file value="routes.rou.xml"/>
        <alternatives-output value="routes.rou.alt.xml"/>
    </output>

    <time>
        <begin value="0"/>
        <end value="86400.0"/>
    </time>

    <report>
        <no-warnings value="true"/>
        <ignore-errors value="true"/>
        <no-step-log value="true"/>
    </report>

</configuration>
-->

<routes xmlns:xsi="http://www.w3.org/2001/XMLSchema-instance" xsi:noNamespaceSchemaLocation="http://sumo.dlr.de/xsd/routes_file.xsd">
    <vType id="bus_bus" vClass="bus"/>
    <vehicle id="bus0" type="bus_bus" depart="0.00" departLane="best" departSpeed="max">
        <route edges="435546424#0 435546424#1 435546424#2 344084913#0 344084913#1 344084913#2 344084913#3 344084913#4 344084913#5 344084913#7 344084913#8 344084913#9 344084913#11 344084913#13 321396548#3 118793920 320249039#0 320249039#2 329876536#0 -646591409 118793923#4"/>
    </vehicle>
    <vehicle id="bus1" type="bus_bus" depart="314.18" departLane="best">
        <route edges="24295136#14 24295136#15 24295136#16 24295136#17 24295136#18 293115460#7 293115460#8 293115460#9 293115460#10 293115460#11 293115460#15 293115460#16 293115460#17 293115460#18"/>
    </vehicle>
    <vehicle id="bus3" type="bus_bus" depart="942.55" departLane="best">
        <route edges="360771086#20 129281459#0 129281459#1 344084913#0 344084913#1 344084913#2 344084913#3 344084913#4 344084913#5 344084913#7 344084913#8 344084913#9 344084913#11 344084913#13 324601502#0 324601502#1 324601502#3 324601502#4 329505437#4 321544178 327607339#0"/>
    </vehicle>
    <vehicle id="bus4" type="bus_bus" depart="1256.73" departLane="best">
        <route edges="496739504#5 321572180#2 321572180#3 321572180#4 321572180#5 321572180#6 321572180#7 321572180#8 496739503 344372307#0 344372307#1 344372307#2 324923340 321544178 327607339#0 327607339#1 327607339#2 118793919#0 360771086#10 24295254#4 24295254#5 24295254#6"/>
    </vehicle>
    <vehicle id="bus5" type="bus_bus" depart="1570.91" departLane="best">
        <route edges="118793923#0 118793923#1 118793923#2 118793923#3 118793923#4 118793923#5 118793923#6 118793923#7 118793923#8"/>
    </vehicle>
    <vehicle id="bus6" type="bus_bus" depart="1885.09" departLane="best" departSpeed="max">
        <route edges="401494444#0 401494444#1 401494444#2 401494444#3 401494444#4 401494444#5 401494444#6 401494444#8 401494444#11 401494444#12 401494444#13 401494444#14 320601926#0 320601926#1"/>
    </vehicle>
    <vehicle id="bus7" type="bus_bus" depart="2199.27" departLane="best">
        <route edges="360771086#21 111895261 522768610#0 151073587#1 317137449#14 317137449#17 129281459#0 129281459#1 344084913#0 344084913#1 344084913#2 344084913#3 344084913#4 344084913#5 344084913#7 344084913#8 344084913#9 344084913#11 344084913#13 324601502#0 324601502#1 324601502#3 324601502#4 329505437#4 118793921#0 118793921#1 118793921#2 118793921#3 118793921#4 118793921#5 329505240#0 329505240#1 329505240#2 329505240#3 329505240#4"/>
    </vehicle>
    <vehicle id="bus8" type="bus_bus" depart="2513.45" departLane="best">
        <route edges="315196302#1 435546424#1 435546424#2 344084913#0 344084913#1 344084913#2 344084913#3 344084913#4 344084913#5 344084913#7 344084913#8 344084913#9 344084913#11 344084913#13 324601502#0 324601502#1 324601502#3 324601502#4 329505437#4 118793921#0 571354729"/>
    </vehicle>
    <vehicle id="bus10" type="bus_bus" depart="3141.82" departLane="best" departSpeed="max">
        <route edges="396425746 320249068#0 118793921#3 118793921#4 118793921#5 329505240#0 329505240#1 329505240#2 329505240#3 329505240#4 329505240#5 321544196#0 321544196#2 321544196#3"/>
    </vehicle>
    <vehicle id="bus11" type="bus_bus" depart="3456.00" departLane="best">
        <route edges="401494444#2 401494444#3 401494444#4 401494444#5 401494444#6 401494444#8 321396548#0 321396548#3 118793920 320249039#0"/>
    </vehicle>
    <vehicle id="bus12" type="bus_bus" depart="3770.18" departLane="best">
        <route edges="327607339#1 327607339#2 324924047#0 324924047#1 156115617#0 156115617#1 156115617#2 156115617#3 156115617#4 156115617#5 156115617#6 156115617#7 156115617#8 111940154#1 111940154#2"/>
    </vehicle>
    <vehicle id="bus13" type="bus_bus" depart="4084.36" departLane="best">
        <route edges="118793923#3 646591409 329876536#1 24295136#11 314360433#6 314360433#7 24295139#2 24295139#3 24295139#4"/>
    </vehicle>
    <vehicle id="bus14" type="bus_bus" depart="4398.55" departLane="best">
        <route edges="324601502#1 360771086#6 360771086#7 360771086#8 360771086#10 360771086#13 360771086#14 326569837#4 326569837#5 156115617#0 156115617#1 156115617#2 156115617#3 156115617#4 156115617#5 156115617#6 156115617#7 24305294#4 24305273#4 24305273#5"/>
    </vehicle>
    <vehicle id="bus15" type="bus_bus" depart="4712.73" departLane="best">
        <route edges="24305365#4 24305399#0 24305399#1 24305399#2 24295136#2 24295136#4 24295136#5 24295136#8 24295136#9 24295136#11 24295136#12 24295136#13 24295136#14 24295136#15 24295136#16 24295136#17 24295136#18 24295136#20 522768610#4 522768610#5 522768610#6 522768610#7 24295097#1"/>
    </vehicle>
    <vehicle id="bus16" type="bus_bus" depart="5026.91" departLane="best">
        <route edges="156115617#0 156115617#1 156115617#2 293115457#2 314360433#9 24295254#0 344084913#13 324601502#0 324601502#1 324601502#3 324601502#4 329505437#4 118793921#0 118793921#1 118793921#2 118793921#3 118793921#4 118793921#5 329505240#0 329505240#1 329505240#2 329505240#3 329505240#4"/>
    </vehicle>
    <vehicle id="bus17" type="bus_bus" depart="5341.09" departLane="best">
        <route edges="633508213#5 522768610#0 151073587#1 317137449#14 317137449#17 129281459#0 129281459#1 344084913#0 344084913#1 344084913#2 344084913#3 344084913#4 344084913#5 344084913#7 344084913#8 344084913#9 344084913#11 344084913#13 324601502#0 324601502#1 324601502#3 324601502#4 329505437#4 118793921#0 571354729 -344372307#1 -344372307#0 329505082 496739504#0 496739504#1 496739504#2 321572180#5 321572180#6 321572180#7 321572180#8"/>
    </vehicle>
    <vehicle id="bus18" type="bus_bus" depart="5655.27" departLane="best">
        <route edges="317137449#12 317137449#13 317137449#14 317137449#17 129281459#0 129281459#1 24295146#0 24295146#1 24295146#2 401494444#2 401494444#3 401494444#4 401494444#5 401494444#6 401494444#8 284925148#0 326569902#4"/>
    </vehicle>
    <vehicle id="bus19" type="bus_bus" depart="5969.45" departLane="best">
        <route edges="24295136#11 24295136#12 24295136#13 24295136#14 24295136#15 24295136#16 24295136#17 24295136#18 24295136#20 522768610#4 522768610#5"/>
    </vehicle>
    <vehicle id="bus20" type="bus_bus" depart="6283.64" departLane="best" departSpeed="max">
        <route edges="435541876#0 435541876#1 329505437#0 360771086#3 360771086#4 360771086#6 360771086#7 360771086#8 360771086#10 360771086#13 360771086#14 326569837#4 326569837#5 156115617#0 156115617#1 156115617#2 156115617#3 24295139#3 24295246#3 24295246#4"/>
    </vehicle>
    <vehicle id="bus21" type="bus_bus" depart="6597.82" departLane="best" departSpeed="max">
        <route edges="325447816#0 321572180#0 24305370#0 24305370#1 321544196#0 321544196#2 321544196#3 321544196#4 284927029#0 -684284130 436277095#3 24305294#0"/>
    </vehicle>
    <vehicle id="bus22" type="bus_bus" depart="6912.00" departLane="best" departSpeed="max">
        <route edges="436277095#0 436277095#2 436277095#3 436277095#4 436277095#5 436277095#6 436277095#7 436277095#8 436277095#9 118793919#0 118793919#3 284925148#0 284925148#1"/>
    </vehicle>
    <vehicle id="bus23" type="bus_bus" depart="7226.18" departLane="best">
        <route edges="646591409 329876536#1 436277095#6 436277095#7 436277095#8 436277095#9 324924047#0 324924047#1 324924047#2 633508213#0 633508213#1 293115460#3"/>
    </vehicle>
    <vehicle id="bus24" type="bus_bus" depart="7540.36" departLane="best">
        <route edges="360771086#10 344084913#13 324601502#0 324601502#1 324601502#3 324601502#4 329505437#4 118793921#0 118793921#1 118793921#2 118793921#3 118793921#4 118793921#5 329505240#0 329505240#1 329505240#2 329505240#3 329505240#4 329505240#5 321544188 24305365#4 24305399#0 24305370#1"/>
    </vehicle>
    <vehicle id="bus25" type="bus_bus" depart="7854.55" departLane="best">
        <route edges="118793918#3 401494444#13 329505437#0 329505437#4 118793921#0 118793921#1 118793921#2 118793921#3 118793921#4 118793921#5 329505240#0 329505240#1 329505240#2 329505240#3 329505240#4 24305286#9 24305286#10"/>
    </vehicle>
    <vehicle id="bus26" type="bus_bus" depart="8168.73" departLane="best">
        <route edges="646591409 329876536#1 436277095#6 436277095#7 436277095#8 436277095#9 118793919#0 360771086#10 360771086#13 360771086#14 360771086#15 360771086#18 360771086#19 360771086#20 129281459#0 129281459#1 24295146#0 24295146#1 302109830#0 302109830#1 302109830#2"/>
    </vehicle>
    <vehicle id="bus27" type="bus_bus" depart="8482.91" departLane="best">
        <route edges="522768610#4 -24267146#0 317137449#9 317137449#10 317137449#11 317137449#12 317137449#13 317137449#14 317137449#17 129281459#0 129281459#1 24295146#0 24295146#1 24295146#2 401494444#2 401494444#3"/>
    </vehicle>
    <vehicle id="bus28" type="bus_bus" depart="8797.09" departLane="best" departSpeed="max">
        <route edges="-24267146#1 -24267146#0 317137449#9 317137449#10 317137449#11 317137449#12 317137449#13 317137449#14 317137449#17 129281459#0 129281459#1 344084913#0 344084913#1 344084913#2 344084913#3 344084913#4 344084913#5 344084913#7 344084913#8 344084913#9 344084913#11 344084913#13 324601502#0 324601502#1 324601502#3 324601502#4 329505437#4 118793921#0 118793921#1 118793921#2 118793921#3 118793921#4 118793921#5 329505240#0"/>
    </vehicle>
    <vehicle id="bus29" type="bus_bus" depart="9111.27" departLane="best">
        <route edges="326569902#5 326569837#0 326569837#1 326569837#4 326569837#5 156115617#0 156115617#1 156115617#2 156115617#3 156115617#4 156115617#5 156115617#6 156115617#7 156115617#8 111940154#1 314360433#1 314360433#2 314360433#3 314360433#4"/>
    </vehicle>
    <vehicle id="bus30" type="bus_bus" depart="9425.45" departLane="best">
        <route edges="24295246#0 24305282#0 156115617#5 156115617#6 24305286#1 24305286#2 24305286#4 24305286#5 24305286#6 24305286#8 24305286#9 24305399#2 24305399#3 321572180#8"/>
    </vehicle>
    <vehicle id="bus31" type="bus_bus" depart="9739.64" departLane="best">
        <route edges="129281458 360771086#19 293115460#0 293115460#3 293115460#4 293115460#5 293115460#6 24295136#20 522768610#4 522768610#5 522768610#6 522768610#7 -24295097#0 279653481#1"/>
    </vehicle>
    <vehicle id="bus32" type="bus_bus" depart="10053.82" departLane="best">
        <route edges="293115460#15 293115460#16 293115460#17 24305273#1 24305273#2 24305273#3 24305273#4 24305273#5 24305273#6 24305273#7 24295136#14 24295136#15 24295136#16 24295136#17 24295136#18 24295136#20 522768610#4 522768610#5 522768610#6 522768610#7 522768610#8"/>
    </vehicle>
    <vehicle id="bus33" type="bus_bus" depart="10368.00" departLane="best" departSpeed="max">
        <route edges="435541876#0 435541876#1 329505437#0 329505437#4 118793921#0 118793921#1 118793921#2 118793921#3 118793921#4 118793921#5 329505240#0 329505240#1 329505240#2 24295136#4"/>
    </vehicle>
    <vehicle id="bus34" type="bus_bus" depart="10682.18" departLane="best" departSpeed="max">
        <route edges="436277095#0 436277095#2 436277095#3 436277095#4 436277095#5 436277095#6 436277095#7 436277095#8 436277095#9 118793919#0 118793919#3 401494444#11 401494444#12 401494444#13 401494444#14 320601926#0 369135366#0 435541876#1"/>
    </vehicle>
    <vehicle id="bus35" type="bus_bus" depart="10996.36" departLane="best">
        <route edges="24305223#1 317137449#12 317137449#13 317137449#14 317137449#17 129281459#0 129281459#1 344084913#0 344084913#1 344084913#2 344084913#3 344084913#4 344084913#5 344084913#7 344084913#8 344084913#9 344084913#11 344084913#13 324601502#0 324601502#1 324601502#3 324601502#4 329505437#4 118793921#0 571354729 -344372307#1 -344372307#0 329505082 496739504#0 496739504#1 496739504#2 321572180#5 321572180#6 321572180#7 321572180#8"/>
    </vehicle>
    <vehicle id="bus36" type="bus_bus" depart="11310.55" departLane="best">
        <route edges="321544196#3 321544196#4 284927029#0 -684284130 436277095#3 436277095#4 436277095#5 24295136#11 314360433#6 314360433#7 314360433#8 314360433#9 324924047#1 156115617#0 156115617#1"/>
    </vehicle>
    <vehicle id="bus37" type="bus_bus" depart="11624.73" departLane="best" departSpeed="max">
        <route edges="360771086#0 360771086#1 360771086#3 360771086#4 360771086#6 360771086#7 360771086#8 360771086#10 360771086#13 360771086#14 326569837#4 326569837#5 156115617#0 156115617#1 156115617#2 156115617#3 156115617#4 156115617#5 156115617#6 156115617#7 156115617#8 111940154#1 314360433#1"/>
    </vehicle>
    <vehicle id="bus38" type="bus_bus" depart="11938.91" departLane="best">
        <route edges="-133242880#1 133242880#1 279653481#5 279653481#6 279653481#7 317137449#8 317137449#9 317137449#10 317137449#11 317137449#12 317137449#13 317137449#14 317137449#17 129281459#0 129281459#1 24295146#0 24295146#1 24295146#2 401494444#2 401494444#3 401494444#4 24295250#1"/>
    </vehicle>
    <vehicle id="bus39" type="bus_bus" depart="12253.09" departLane="best" departSpeed="max">
        <route edges="-24295097#1 -24295097#0 279653481#1 279653481#2 279653481#3 279653481#5 279653481#6 279653481#7 317137449#8 317137449#9 317137449#10 317137449#11 317137449#12 317137449#13 317137449#14 317137449#17 129281459#0 129281459#1 344084913#0 344084913#1 344084913#2 344084913#3 344084913#4 344084913#5 344084913#7 344084913#8 344084913#9 344084913#11 344084913#13 324601502#0 324601502#1 324601502#3 324601502#4 329505437#4 118793921#0 571354729 -344372307#1 -344372307#0 329505082 496739504#0 496739504#1 496739504#2 496739504#3 496739504#4 496739504#5"/>
    </vehicle>
    <vehicle id="bus40" type="bus_bus" depart="12567.27" departLane="best">
        <route edges="24305273#1 24305273#2 24305273#3 24305273#4 24305273#5 24305286#0 24305286#1 314360433#5 314360433#6 314360433#7 314360433#8 314360433#9 24295254#0 344084913#13 321396548#3 118793920"/>
    </vehicle>
    <vehicle id="bus41" type="bus_bus" depart="12881.45" departLane="best" departSpeed="max">
        <route edges="435541876#0 435541876#1 329505437#0 360771086#3 360771086#4 360771086#6 360771086#7 360771086#8 360771086#10 360771086#13 360771086#14 360771086#15 360771086#18 360771086#19 293115460#0 293115460#3 293115460#4 293115460#5 293115460#6 24295136#20 522768610#4 522768610#5 522768610#6 522768610#7"/>
    </vehicle>
    <vehicle id="bus42" type="bus_bus" depart="13195.64" departLane="best">
        <route edges="118793921#4 118793921#5 329505241#1 496739503 344372307#0 344372307#1 344372307#2 324923340 321544178 327607339#0 327607339#1 327607339#2 118793919#0 360771086#10 360771086#13 360771086#14 360771086#15 360771086#18 360771086#19 293115460#0"/>
    </vehicle>
    <vehicle id="bus43" type="bus_bus" depart="13509.82" departLane="best">
        <route edges="344084913#8 344084913#9 344084913#11 344084913#13 324601502#0 324601502#1 324601502#3 324601502#4 329505437#4 118793921#0 118793921#1 118793921#2 118793921#3 118793921#4 118793921#5 329505240#0 329505240#1 329505240#2 329505240#3 329505240#4 329505240#5 321544196#0 152762229#1"/>
    </vehicle>
    <vehicle id="bus44" type="bus_bus" depart="13824.00" departLane="best" departSpeed="max">
        <route edges="284927032#0 284927032#3 321396548#0 360771086#10 360771086#13 360771086#14 360771086#15 360771086#18 360771086#19 293115460#0 293115460#3 293115460#4 293115460#5 293115460#6 24295136#20 522768610#4 522768610#5 522768610#6 522768610#7 24295097#1"/>
    </vehicle>
    <vehicle id="bus45" type="bus_bus" depart="14138.18" departLane="best" departSpeed="max">
        <route edges="317137449#0 24305273#1 24305273#2 24305273#3 24305273#4 24305273#5 24305286#0 24305286#1 24305286#2 24305286#4 24305286#5 24305286#6 152762229#4 152762229#5 152762229#8 111896823#2 111896823#3 329505240#0 329505240#1 329505240#2 329505240#3 329505240#4"/>
    </vehicle>
    <vehicle id="bus46" type="bus_bus" depart="14452.36" departLane="best" departSpeed="max">
        <route edges="24295123 436478051#0 436478051#1 436478051#2 24295147#0 24295147#1 293115460#0 293115460#3 293115460#4 293115460#5 24305223#3 24305223#4 24295246#2"/>
    </vehicle>
    <vehicle id="bus47" type="bus_bus" depart="14766.55" departLane="best">
        <route edges="633508215#3 401494444#4 401494444#5 401494444#6 401494444#8 401494444#11 401494444#12 401494444#13 329505437#0 324601502#6"/>
    </vehicle>
    <vehicle id="bus48" type="bus_bus" depart="15080.73" departLane="best">
        <route edges="24295136#2 24295136#4 24295136#5 24295136#8 24295136#9 24295136#11 24295136#12 24295136#13 24295136#14 24295136#15 24295136#16 24295136#17 24295136#18 24295136#20 522768610#4 522768610#5 24295100#1"/>
    </vehicle>
    <vehicle id="bus49" type="bus_bus" depart="15394.91" departLane="best">
        <route edges="118793919#3 401494444#11 401494444#12 401494444#13 329505437#0 329505437#4 118793921#0 118793921#1 118793921#2 118793921#3 118793921#4 118793921#5 329505240#0 329505240#1 329505240#2 329505240#3 329505240#4 24305286#9 24305286#10 321572180#3 321572180#4"/>
    </vehicle>
    <vehicle id="bus50" type="bus_bus" depart="15709.09" departLane="best">
        <route edges="24295136#8 24295136#9 436277095#6 436277095#7 436277095#8 436277095#9 324924047#0 324924047#1 324924047#2"/>
    </vehicle>
    <vehicle id="bus51" type="bus_bus" depart="16023.27" departLane="best">
        <route edges="436277095#9 324924047#0 324924047#1 324924047#2 633508213#0 633508213#1 293115460#3 293115460#4 293115460#5 293115460#6 293115460#7 293115460#8 293115460#9 293115460#10 293115460#11 317137449#7"/>
    </vehicle>
    <vehicle id="bus52" type="bus_bus" depart="16337.45" departLane="best">
        <route edges="293115460#9 293115460#10 293115460#11 293115460#15 293115460#16 293115460#17 24305273#1 24305273#2 24305273#3 24305273#4 24305273#5 24305286#0 24305286#1 24305286#2 24305286#4 24305286#5 24305286#6 152762229#4 152762229#5 152762229#8 111896823#2 111896823#3 329505241#1 496739503 344372307#0 344372307#1"/>
    </vehicle>
    <vehicle id="bus53" type="bus_bus" depart="16651.64" departLane="best" departSpeed="max">
        <route edges="284927032#0 284927032#3 321396548#0 321396548#3 118793920 320249039#0 320249039#2 329876536#0 329876536#1 329876536#2 329876536#3 284927029#0 284927029#1 284927029#2"/>
    </vehicle>
    <vehicle id="bus54" type="bus_bus" depart="16965.82" departLane="best">
        <route edges="329505240#5 321544196#0 152762229#1 152762229#2 152762229#4 152762229#5 152762229#8 152762229#9 152762229#10 152762229#11 327607339#0 327607339#1 327607339#2 118793919#0 360771086#10 360771086#13 360771086#14 360771086#15 344084913#7 24295250#0 401494444#5 326569837#1"/>
    </vehicle>
    <vehicle id="bus55" type="bus_bus" depart="17280.00" departLane="best">
        <route edges="571354729 -571354729 118793921#1 118793921#2 118793921#3 118793921#4 118793921#5 329505240#0 329505240#1 329505240#2 329505240#3 329505240#4 329505240#5 321544196#0 321544196#2 321544196#3 118793923#7 118793923#8"/>
    </vehicle>
    <vehicle id="bus56" type="bus_bus" depart="17594.18" departLane="best">
        <route edges="279653481#1 279653481#2 279653481#3 279653481#5 279653481#6 279653481#7 317137449#8 317137449#9 317137449#10 317137449#11 317137449#12 317137449#13 317137449#14 317137449#17 129281459#0 129281459#1 24295146#0 24295146#1 24295146#2 401494444#2 401494444#3 401494444#4 401494444#5 401494444#6 24295254#5 24295254#6"/>
    </vehicle>
    <vehicle id="bus57" type="bus_bus" depart="17908.36" departLane="best">
        <route edges="401494444#2 401494444#3 401494444#4 401494444#5 401494444#6 401494444#8 401494444#11 401494444#12 401494444#13 329505437#0 329505437#4 118793921#0 571354729 -344372307#1 -344372307#0 329505082 496739504#0 496739504#1 496739504#2 24295136#1 24295136#2"/>
    </vehicle>
    <vehicle id="bus58" type="bus_bus" depart="18222.55" departLane="best">
        <route edges="24267146#0 -24267146#0 317137449#9 317137449#10 317137449#11 317137449#12 317137449#13 317137449#14 317137449#17 129281459#0 129281459#1 24295146#0 24295146#1 24295146#2 401494444#2 401494444#3 401494444#4 401494444#5 401494444#6 401494444#8 284925148#0"/>
    </vehicle>
    <vehicle id="bus59" type="bus_bus" depart="18536.73" departLane="best">
        <route edges="284927029#1 24305365#1 24305365#2 152762229#0 152762229#1 152762229#2 152762229#4 152762229#5 24295136#8 24295136#9 24295136#11 314360433#6 314360433#7 24295139#2 24295139#3 24295139#4"/>
    </vehicle>
    <vehicle id="bus60" type="bus_bus" depart="18850.91" departLane="best">
        <route edges="24295139#4 317137449#13 317137449#14 317137449#17 129281459#0 129281459#1 344084913#0 344084913#1 344084913#2 344084913#3 344084913#4 344084913#5 344084913#7 344084913#8 344084913#9 344084913#11 344084913#13 324601502#0 324601502#1 324601502#3 324601502#4 329505437#4 118793921#0 571354729 -344372307#1 -344372307#0 329505082 496739504#0 496739504#1 496739504#2 496739504#3"/>
    </vehicle>
    <vehicle id="bus61" type="bus_bus" depart="19165.09" departLane="best">
        <route edges="317137449#1 317137449#2 317137449#3 317137449#7 317137449#8 317137449#9 317137449#10 317137449#11 317137449#12 317137449#13 317137449#14 317137449#17 129281459#0 129281459#1 344084913#0 344084913#1 344084913#2 344084913#3 344084913#4 344084913#5 344084913#7 344084913#8 344084913#9 344084913#11 344084913#13 324601502#0 324601502#1 324601502#3 118793918#3"/>
    </vehicle>
    <vehicle id="bus63" type="bus_bus" depart="19793.45" departLane="best">
        <route edges="522768610#3 522768610#4 -24267146#0 317137449#9 317137449#10 317137449#11 317137449#12 317137449#13 317137449#14 317137449#17 129281459#0 129281459#1 344084913#0 344084913#1 344084913#2 344084913#3 344084913#4 344084913#5 344084913#7 344084913#8 344084913#9 344084913#11 344084913#13 324601502#0 324601502#1 324601502#3 324601502#4 329505437#4 118793921#0 571354729 -344372307#1 -344372307#0 329505082 496739504#0 496739504#1 496739504#2 496739504#3 496739504#4"/>
    </vehicle>
    <vehicle id="bus64" type="bus_bus" depart="20107.64" departLane="best" departSpeed="max">
        <route edges="401494444#0 401494444#1 401494444#2 401494444#3 401494444#4 401494444#5 326569837#1 326569837#4 326569837#5 156115617#0 156115617#1 156115617#2 156115617#3 156115617#4 156115617#5 156115617#6 156115617#7"/>
    </vehicle>
    <vehicle id="bus65" type="bus_bus" depart="20421.82" departLane="best" departSpeed="max">
        <route edges="312662578#0 324923340 321544178 327607339#0 327607339#1 327607339#2 324924047#0 324924047#1 324924047#2 633508213#0 633508213#1 293115460#3 293115460#4 293115460#5 293115460#6 24295136#20 522768610#4 522768610#5 522768610#6 522768610#7 24295097#1"/>
    </vehicle>
    <vehicle id="bus66" type="bus_bus" depart="20736.00" departLane="best" departSpeed="max">
        <route edges="279653481#0 279653481#1 279653481#2 279653481#3 279653481#5 279653481#6 279653481#7 317137449#8 317137449#9 317137449#10 317137449#11 317137449#12 317137449#13 317137449#14 317137449#17 129281459#0 129281459#1 344084913#0 344084913#1 344084913#2 344084913#3 344084913#4 344084913#5 344084913#7 344084913#8 344084913#9 344084913#11 344084913#13 321396548#3 118793920"/>
    </vehicle>
    <vehicle id="bus67" type="bus_bus" depart="21050.18" departLane="best">
        <route edges="24305370#1 321544196#0 152762229#1 152762229#2 152762229#4 152762229#5 152762229#8 152762229#9 152762229#10 152762229#11 327607339#0 327607339#1 327607339#2 118793919#0 360771086#10 360771086#13 360771086#14 360771086#15 633508215#3 633508215#4"/>
    </vehicle>
    <vehicle id="bus68" type="bus_bus" depart="21364.36" departLane="best">
        <route edges="24295147#1 360771086#20 129281459#0 129281459#1 344084913#0 344084913#1 344084913#2 344084913#3 344084913#4 344084913#5 344084913#7 344084913#8 344084913#9 344084913#11 344084913#13 324601502#0 324601502#1 324601502#3 324601502#4 329505437#4 118793921#0 118793921#1 118793921#2 118793921#3 118793921#4 118793921#5 329505241#1 496739503 344372307#0"/>
    </vehicle>
    <vehicle id="bus69" type="bus_bus" depart="21678.55" departLane="best">
        <route edges="293115460#16 293115460#17 24305273#1 24305273#2 111940154#0 111940154#1 111940154#2 684284130 284927029#1 24305365#1 24305365#2 24305365#3 24305365#4 24305399#0 24305370#1"/>
    </vehicle>
    <vehicle id="bus70" type="bus_bus" depart="21992.73" departLane="best">
        <route edges="496739504#5 321572180#2 321572180#3 321572180#4 321572180#5 321572180#6 321572180#7 321572180#8 496739503 344372307#0 344372307#1 344372307#2 324923340 321544178 327607339#0 327607339#1 327607339#2 118793919#0 360771086#10 360771086#13 360771086#14 360771086#15 633508215#3 633508215#4"/>
    </vehicle>
    <vehicle id="bus71" type="bus_bus" depart="22306.91" departLane="best">
        <route edges="317137449#12 317137449#13 317137449#14 317137449#17 129281459#0 129281459#1 344084913#0 344084913#1 344084913#2 344084913#3 344084913#4 344084913#5 344084913#7 344084913#8 344084913#9 344084913#11 344084913#13 324601502#0 324601502#1 324601502#3 324601502#4 329505437#4 118793921#0 571354729 -344372307#1 -344372307#0 329505082"/>
    </vehicle>
    <vehicle id="bus72" type="bus_bus" depart="22621.09" departLane="best">
        <route edges="152762229#2 152762229#4 152762229#5 152762229#8 152762229#9 152762229#10 152762229#11 327607339#0 327607339#1 327607339#2 118793919#0 360771086#10 360771086#13 360771086#14 360771086#15 360771086#18 360771086#19 360771086#20 129281459#0 129281459#1 24295146#0"/>
    </vehicle>
    <vehicle id="bus73" type="bus_bus" depart="22935.27" departLane="best">
        <route edges="522768610#3 522768610#4 -24267146#0 317137449#9 317137449#10 317137449#11 317137449#12 317137449#13 317137449#14 317137449#17 129281459#0 129281459#1 344084913#0 344084913#1 344084913#2 344084913#3 344084913#4 344084913#5 344084913#7 344084913#8 344084913#9 344084913#11 344084913#13 321396548#3 118793920 320249039#0 320249039#2"/>
    </vehicle>
    <vehicle id="bus74" type="bus_bus" depart="23249.45" departLane="best" departSpeed="max">
        <route edges="317137449#0 317137449#1 317137449#2 317137449#3 317137449#7 317137449#8 317137449#9 317137449#10 317137449#11 317137449#12 317137449#13 317137449#14 317137449#17 129281459#0 129281459#1 24295146#0 24295146#1 24295146#2 344084911"/>
    </vehicle>
    <vehicle id="bus75" type="bus_bus" depart="23563.64" departLane="best">
        <route edges="111940154#1 314360433#1 314360433#2 314360433#3 314360433#4 24305286#2 24305286#4 24305286#5 24305286#6 152762229#4 152762229#5 152762229#8 111896823#2 111896823#3 329505241#1 496739503 344372307#0 320249068#0 320249068#2"/>
    </vehicle>
    <vehicle id="bus76" type="bus_bus" depart="23877.82" departLane="best" departSpeed="max">
        <route edges="314360433#0 314360433#1 314360433#2 314360433#3 314360433#4 314360433#5 314360433#6 314360433#7 314360433#8 314360433#9 24295254#0 24295254#4 401494444#8 401494444#11 401494444#12 401494444#13 401494444#14 401494444#15"/>
    </vehicle>
    <vehicle id="bus77" type="bus_bus" depart="24192.00" departLane="best">
        <route edges="152762229#4 152762229#5 152762229#8 152762229#9 152762229#10 152762229#11 327607339#0 327607339#1 327607339#2 324924047#0 324924047#1 324924047#2 633508213#0 633508213#1 633508213#5 522768611#0"/>
    </vehicle>
    <vehicle id="bus78" type="bus_bus" depart="24506.18" departLane="best">
        <route edges="118793921#2 320249068#2 320249068#3 152762229#11 118793918#0 118793918#3 118793918#4 327607511#0 172580997"/>
    </vehicle>
    <vehicle id="bus79" type="bus_bus" depart="24820.36" departLane="best">
        <route edges="321396548#0 324601502#0 324601502#1 324601502#3 324601502#4 329505437#4 118793921#0 118793921#1 118793921#2 118793921#3 118793921#4 118793921#5 329505240#0 329505240#1 329505240#2 329505240#3 329505240#4 329505240#5 321544196#0 321544196#2 321544196#3"/>
    </vehicle>
    <vehicle id="bus80" type="bus_bus" depart="25134.55" departLane="best" departSpeed="max">
        <route edges="24295123 401494444#3 401494444#4 401494444#5 401494444#6 401494444#8 401494444#11 401494444#12 118793918#4 327607512#0"/>
    </vehicle>
    <vehicle id="bus81" type="bus_bus" depart="25448.73" departLane="best">
        <route edges="24305273#5 24305273#6 24305273#7 24295136#14 24295136#15 24295136#16 24295136#17 24295136#18 317137449#11 317137449#12 317137449#13 317137449#14 317137449#17 129281459#0 129281459#1 24295146#0 24295146#1 24295146#2 344084911"/>
    </vehicle>
    <vehicle id="bus82" type="bus_bus" depart="25762.91" departLane="best">
        <route edges="118793920 320249039#0 320249039#2 329876536#0 329876536#1 24295136#11 24295136#12 24295136#13 24295136#14 24295136#15 24295136#16 24295136#17 24295136#18 24295136#20 522768610#4 522768610#5 522768610#6 522768610#7 24295097#1"/>
    </vehicle>
    <vehicle id="bus84" type="bus_bus" depart="26391.27" departLane="best">