<?xml version="1.0" encoding="UTF-8"?>

<!-- generated on Fri Sep  6 15:33:14 2019 by Eclipse SUMO duarouter Version v1_2_0+0622-cbc8645
<configuration xmlns:xsi="http://www.w3.org/2001/XMLSchema-instance" xsi:noNamespaceSchemaLocation="http://sumo.dlr.de/xsd/duarouterConfiguration.xsd">

    <input>
        <net-file value="osm.net.xml"/>
        <route-files value="osm.bus.trips.xml"/>
    </input>

    <output>
        <output-file value="routes.rou.xml"/>
        <alternatives-output value="routes.rou.alt.xml"/>
    </output>

    <time>
        <begin value="0"/>
        <end value="86400.0"/>
    </time>

    <report>
        <no-warnings value="true"/>
        <ignore-errors value="true"/>
        <no-step-log value="true"/>
    </report>

</configuration>
-->

<routes xmlns:xsi="http://www.w3.org/2001/XMLSchema-instance" xsi:noNamespaceSchemaLocation="http://sumo.dlr.de/xsd/routes_file.xsd">
    <vType id="bus_bus" vClass="bus"/>
    <vehicle id="bus0" type="bus_bus" depart="0.00" departLane="best" departSpeed="max">
        <route edges="428030875#0 428030875#1 35557265#4 35557265#5 279864811#0 75036010#0 75036010#1 75036010#2 320898743#1 320898743#2 428032853#0 428032853#1 428032853#2 428046226#1 428046226#2 -75036013#2 -75036013#1 -428073531#0"/>
    </vehicle>
    <vehicle id="bus1" type="bus_bus" depart="161.50" departLane="best">
        <route edges="435393029#1 435393029#2 435491726#1 435491726#5 435491726#9 435491726#13 435491726#15 75223312#1 618055292#0 618055292#1 618055291#0 413976459#3 618055289#1 618055289#2 428030875#5"/>
    </vehicle>
    <vehicle id="bus2" type="bus_bus" depart="322.99" departLane="best">
        <route edges="618118083#1 618118082#2 435491726#13 435491726#15 435491726#18 75223322#0 75223322#1 75223322#2 75223322#3 304437030#0 304437030#1 304437030#2 304437030#3 304437030#4 304437030#5 304442660#0 304442660#1 304442660#2 118291788#0 118291788#1 118291788#2"/>
    </vehicle>
    <vehicle id="bus3" type="bus_bus" depart="484.49" departLane="best">
        <route edges="336833695#0 336833695#1 284929204#0 284929204#1 284929204#2 120863177#0 120863177#1 120863177#2 120863177#4 410089531#1 410089531#2 435491726#1 435491726#5 435491726#9 435491726#13 435491726#15 435491726#18 75223322#0 75223322#1 151316320#7 304437031 -437506344"/>
    </vehicle>
    <vehicle id="bus4" type="bus_bus" depart="645.98" departLane="best" departSpeed="max">
        <route edges="24252801#0 24252801#1 24252801#2 24252801#3 24252801#4 344149309#3 401506730#0 401506730#1 401506730#2 401506730#3 401506730#4 401506730#5 401506730#6 401506730#7 401506730#8 618118083#1 618118082#2 412307193#0 412307193#1 442469224#1 430072204#0 430072204#1 430072204#2 391958207#1 391958207#2 391958207#3"/>
    </vehicle>
    <vehicle id="bus5" type="bus_bus" depart="807.48" departLane="best">
        <route edges="-428073531#1 -428073531#0 442334036#1 435707014#4 435707014#5 618118083#1 618118082#2 412307193#0 412307193#1 442469224#1 442867200#1 442867200#2 442867200#7 172243635 412495542#0 412495542#1 279043423#0 279043423#1 279043423#2"/>
    </vehicle>
    <vehicle id="bus6" type="bus_bus" depart="968.97" departLane="best">
        <route edges="428030875#2 428030875#3 428030875#4 428030875#5 75223332 651186341#0 651186341#1 651186341#2 442469223#1 435343301#1 144953677#0 144953677#1 144953677#2 370644951#5 370644951#6 370644951#7 370644951#9 370644951#10 401506730#5"/>
    </vehicle>
    <vehicle id="bus7" type="bus_bus" depart="1130.47" departLane="best" departSpeed="max">
        <route edges="24252801#0 24252801#1 24252801#2 24252801#3 24252801#4 344149309#3 401506730#0 401506730#1 401506730#2 401506730#3 401506730#4 401506730#5 401506730#6 401506730#7 401506730#8 618118083#1 618118082#2 412307193#0 412307193#1 442469224#1 442867200#1 442867200#2 442867200#7 442867200#8 412296083#1 412296083#2"/>
    </vehicle>
    <vehicle id="bus8" type="bus_bus" depart="1291.96" departLane="best" departSpeed="max">
        <route edges="319515359#0 319515359#2 319515359#3 331470728#0 331470728#1 120863177#0 120863177#1 120863177#2 120863177#4 410089531#1 410089531#2 172098498#2"/>
    </vehicle>
    <vehicle id="bus9" type="bus_bus" depart="1453.46" departLane="best">
        <route edges="75036027#1 75036027#2 75036027#3 619019400#1 619019400#2 619019400#3 619019400#4 619019400#5 619019400#6 619019400#7 619019400#8 320898734#0 320898734#1 284929204#0 284929204#1 284929204#2 129897450 299781216 355775773 279864770#0 279864770#1 279864770#2 279864770#3 279864770#4 279864770#5 315199154#0"/>
    </vehicle>
    <vehicle id="bus11" type="bus_bus" depart="1776.45" departLane="best">
        <route edges="39413204#2 172244021#1 44364644#2 44364644#3 129897442#5 111925884#0 111925884#1 412296575#1 412296575#2 435491726#1 435491726#5 435491726#9 435491726#13 435491726#15 435491726#18 435491726#20 435491726#21 435491726#22 75036027#0 75036027#1 75036027#2 75036027#3 75036027#4"/>
    </vehicle>
    <vehicle id="bus12" type="bus_bus" depart="1937.94" departLane="best">
        <route edges="319788732#2 75037344#1 627176989 627176990#0 627176990#1 -428073531#1 -428073531#0 442334036#1 435707014#4 435707014#5 618118083#1 618118082#2 412307193#0 412307193#1 442469224#1 442867200#1 517107201#0 517107201#1 -111924331#1 -111924331#0 406644984#1 406644981#0"/>
    </vehicle>
    <vehicle id="bus13" type="bus_bus" depart="2099.44" departLane="best" departSpeed="max">
        <route edges="4832866 355607761#0 355607761#2 442451678#0 435707014#1 435707014#3 435707014#4 435707014#5 618118083#1 618118082#2 412307193#0 412307193#1 442469224#1 442867200#1 442867200#2 172098498#2 410089534#0 410089534#3 410089534#4"/>
    </vehicle>
    <vehicle id="bus14" type="bus_bus" depart="2260.93" departLane="best">
        <route edges="430077168#0 430077169#0 430077169#1 430072721#8 618118685#1 618118686#2 435491726#13 435491726#15 75223312#1 618055292#0 618055292#1 618055291#0 618055291#1 618055291#2 618055291#3 618055291#4 619019400#8 279864789 279864811#0 75036010#0 75036010#1 -617934930"/>
    </vehicle>
    <vehicle id="bus15" type="bus_bus" depart="2422.43" departLane="best">
        <route edges="24252801#2 24252801#3 24252801#4 344149309#3 401506730#0 401506730#1 401506730#2 401506730#3 401506730#4 401506730#5 401506730#6 401506730#7 401506730#8 618118083#1 618118082#2 412307193#0 412307193#1 442469224#1 442867200#1 442867200#2 442867200#7 172243635 111948492 618315978#1 618315978#2 298431255#1 298431255#2 298431255#3 298431255#4"/>
    </vehicle>
    <vehicle id="bus16" type="bus_bus" depart="2583.93" departLane="best">
        <route edges="111924331#0 430077169#8 435393029#1 435393029#2 172098498#2 410089534#0 410089534#3 410089534#4 410089534#6 410089534#7 410089534#8 410089534#9 129897418 299781215 319662804#8 355775773 279864770#0 279864770#1 279864770#2 279864770#3 279864770#4 -479823503 35557265#0 35557265#1 35557265#2 35557265#3 35557265#4 35557265#5 279864811#0 279864811#1"/>
    </vehicle>
    <vehicle id="bus18" type="bus_bus" depart="2906.92" departLane="best">
        <route edges="284929204#0 284929204#1 284929204#2 129897450 299781216 355775773 279864770#0 279864770#1 279864770#2 279864770#3 279864770#4 -479823503 35557265#0 75036007#0 75036007#1 75036007#2"/>
    </vehicle>
    <vehicle id="bus19" type="bus_bus" depart="3068.41" departLane="best">
        <route edges="428030875#1 428030875#2 428030875#3 428030875#4 428030875#5 75223332 651186341#0 651186341#1 651186341#2 442469224#1 442867200#1 442867200#2 172098498#2 410089534#0 35557450#1 412296576#2"/>
    </vehicle>
    <vehicle id="bus20" type="bus_bus" depart="3229.91" departLane="best" departSpeed="max">
        <route edges="134766361#0 75036032 619019400#1 619019400#2 428032853#0 428032853#1 428032853#2 442334036#0 442334036#1 75223322#0 24252788#1 430077168#0 430077169#0"/>
    </vehicle>
    <vehicle id="bus21" type="bus_bus" depart="3391.40" departLane="best" departSpeed="max">
        <route edges="134766361#0 75036032 619019400#1 619019400#2 619019400#3 619019400#4 619019400#5 619019400#6 75036020 75036010#2 320898743#1"/>
    </vehicle>
    <vehicle id="bus22" type="bus_bus" depart="3552.90" departLane="best" departSpeed="max">
        <route edges="75243088#0 75243088#1 75243088#2 75243088#3 75243088#4 75243088#5 401506730#0 401506730#1 401506730#2 401506730#3 401506730#4 401506730#5 401506730#6 401506730#7 401506730#8 618118083#1 618118082#2 412307193#0 412307193#1 442469224#1 442867200#1 442867200#2 442867200#7 172243635 412495542#0 412495542#1"/>
    </vehicle>
    <vehicle id="bus23" type="bus_bus" depart="3714.39" departLane="best">
        <route edges="44364645#3 428030874#1 120863177#4 410089531#1 410089531#2 435491726#1 435491726#5"/>
    </vehicle>
    <vehicle id="bus24" type="bus_bus" depart="3875.89" departLane="best">
        <route edges="24252801#2 24252801#3 24252801#4 344149309#3 401506730#0 401506730#1 401506730#2 401506730#3 401506730#4 401506730#5 401506730#6 401506730#7 401506730#8 618118083#1 618118082#2 442317099#1 442317099#2 -442309012#2 -442309012#1"/>
    </vehicle>
    <vehicle id="bus26" type="bus_bus" depart="4198.88" departLane="best">
        <route edges="618055291#0 413976459#3 618055289#1 428035708 391958207#6 391958207#7 24252780 467318483#0 467318483#2 435491726#15 435491726#18 75223322#0 75223322#1 75223322#2 75223322#3 304437030#0 304437030#1 304437030#2 304437030#3 304437030#4 304437030#5 304442660#0 304442660#1"/>
    </vehicle>
    <vehicle id="bus27" type="bus_bus" depart="4360.37" departLane="best">
        <route edges="619019400#8 320898734#0 428030875#3 428030875#4 428030875#5 75223332 651186341#0 651186341#1 651186341#2 442469224#1 442867200#1 442867200#2 172098498#2 410089534#0 35557450#1"/>
    </vehicle>
    <vehicle id="bus28" type="bus_bus" depart="4521.87" departLane="best" departSpeed="max">
        <route edges="279864813#0 413976463#0 75036032 619019400#1 619019400#2 619019400#3 619019400#4 619019400#5 619019400#6 619019400#7 619019400#8 320898734#0 320898734#1 284929209#0 284929209#1 284929209#2 284929209#3"/>
    </vehicle>
    <vehicle id="bus30" type="bus_bus" depart="4844.86" departLane="best">
        <route edges="410089534#7 654035438 331470728#8 331470728#9 428030874#0 428030874#1 120863177#4 410089531#1 410089531#2 435491726#1 435491726#5 435491726#9 435491726#13 435491726#15 435491726#18 435491726#20 435491726#21 435491726#22 75036027#0 75036027#1 75036027#2 75036027#3 619019400#1"/>
    </vehicle>
    <vehicle id="bus31" type="bus_bus" depart="5006.36" departLane="best">
        <route edges="320898743#2 619019400#3 619019400#4 619019400#5 619019400#6 619019400#7 619019400#8 320898734#0 320898734#1 284929204#0 284929204#1 284929204#2 129897450 299781216 355775773 279864770#0 279864770#1 279864770#2 279864770#3 279864770#4 279864770#5"/>
    </vehicle>
    <vehicle id="bus32" type="bus_bus" depart="5167.85" departLane="best">
        <route edges="75243088#4 75243088#5 401506730#0 401506730#1 401506730#2 401506730#3 401506730#4 401506730#5 401506730#6 401506730#7 401506730#8 75223312#1 618055292#0 618055292#1 618055291#0 413976459#3 618055289#1 428035708 391958207#6"/>
    </vehicle>
    <vehicle id="bus34" type="bus_bus" depart="5490.84" departLane="best">
        <route edges="120863177#4 410089531#1 410089531#2 442867200#7 172243635 111948492 618315978#1 618315978#2 412495541#1 412495541#2 412495541#3"/>
    </vehicle>
    <vehicle id="bus35" type="bus_bus" depart="5652.34" departLane="best" departSpeed="max">
        <route edges="442334023 627176990#0 627176990#1 75036027#1 75036027#2 75036027#3 619019400#1 619019400#2 619019400#3 619019400#4 619019400#5 619019400#6 619019400#7 619019400#8 320898734#0 320898734#1 284929204#0 284929204#1 284929204#2 129897450 299781216 355775773 279864770#0 279864770#1 279864770#2 279864770#3 279864770#4 -479823503 35557265#0"/>
    </vehicle>
    <vehicle id="bus36" type="bus_bus" depart="5813.83" departLane="best" departSpeed="max">
        <route edges="-75036007#2 -75036007#1 -75036007#0 35557265#1 35557265#2 35557265#3 35557265#4 35557265#5 279864811#0 75036010#0 75036010#1 75036010#2 320898743#1 320898743#2"/>
    </vehicle>
    <vehicle id="bus37" type="bus_bus" depart="5975.33" departLane="best">
        <route edges="75243088#4 75243088#5 401506730#0 401506730#1 401506730#2 401506730#3 401506730#4 401506730#5 401506730#6 401506730#7 401506730#8 618118083#1 618118082#2 412307193#0 412307193#1 442469224#1 442867200#1 442867200#2 442867200#7 172243635 111948492 618315978#1 618315978#2 412495541#1 412495541#2 39413204#2 39413204#3"/>
    </vehicle>
    <vehicle id="bus38" type="bus_bus" depart="6136.82" departLane="best">
        <route edges="75223322#0 24252788#1 401506730#8 618118083#1 618118082#2 412307193#0 412307193#1 442469224#1 442867200#1 517107201#0 517107201#1"/>
    </vehicle>
    <vehicle id="bus39" type="bus_bus" depart="6298.32" departLane="best">
        <route edges="-35557447#0 319662804#6 319662804#7 319662804#8 355775773 279864770#0 279864770#1 279864770#2 279864770#3 279864770#4 -479823503 331470728#0 331470728#1 120863177#0 120863177#1 120863177#2 120863177#4 410089531#1 410089531#2 435491726#1 435491726#5 442469223#1 435343301#1 144953677#0 144953677#1 144953677#2 370644951#5 430072721#0 430072721#3 430072721#4 430072721#5 430072721#6"/>
    </vehicle>
    <vehicle id="bus40" type="bus_bus" depart="6459.81" departLane="best">
        <route edges="428073531#1 -428073531#1 -428073531#0 442334036#1 75223322#0 75223322#1 75223322#2 75223322#3 304437030#0 304437030#1 304437030#2 304437030#3 304437030#4 304437030#5 304442660#0 304442660#1 304442660#2 24252801#2 24252801#3 24252801#4 344149309#3 401506730#0 401506730#1"/>
    </vehicle>
    <vehicle id="bus41" type="bus_bus" depart="6621.31" departLane="best">
        <route edges="284929204#0 284929204#1 284929204#2 120863177#0 120863177#1 120863177#2 120863177#4 410089531#1 410089531#2 442867200#7 172243635 412495542#0 412495542#1"/>
    </vehicle>
    <vehicle id="bus42" type="bus_bus" depart="6782.80" departLane="best" departSpeed="max">
        <route edges="126587263#0 126587263#2 406644981#0 406644981#1 442867200#1 442867200#2 172098498#2 410089534#0 410089534#3 410089534#4 410089534#6 410089534#7 410089534#8 410089534#9 129897418 299781215 319662804#8 355775773 35557442#0"/>
    </vehicle>
    <vehicle id="bus43" type="bus_bus" depart="6944.30" departLane="best">
        <route edges="35557265#3 35557265#4 35557265#5 279864811#0 75036010#0 75036010#1 75036010#2 320898743#1 320898743#2 428032853#0 428032853#1 428032853#2 428046226#1 428046226#2 -75036013#2 75036013#2"/>
    </vehicle>
    <vehicle id="bus44" type="bus_bus" depart="7105.79" departLane="best">
        <route edges="298367761#2 298367761#3 298367761#6 -437506344 28707264#1 435365881 435707014#1 435707014#3 435707014#4 435707014#5 618118083#1 618118082#2 412307193#0 412307193#1 442469224#1 442867200#1 442867200#2 442867200#7 172243635 412495542#0"/>
    </vehicle>
    <vehicle id="bus45" type="bus_bus" depart="7267.29" departLane="best">
        <route edges="442309013#4 428073529 442334036#1 435707014#4 435707014#5 618118083#1 618118082#2 412307193#0 412307193#1 442469224#1 442867200#1 442867200#2 442867200#7 172243635 111948492 618315978#1 618315978#2 412495541#1 412495541#2 39413204#2 39413204#3"/>
    </vehicle>
    <vehicle id="bus46" type="bus_bus" depart="7428.79" departLane="best">
        <route edges="-111924331#0 406644984#1 406644981#0 406644981#1 435491726#5 435491726#9 435491726#13 435491726#15 435491726#18 435491726#20 435491726#21 435491726#22 319788732#1 319788732#2 319788732#3 304549060"/>
    </vehicle>
    <vehicle id="bus47" type="bus_bus" depart="7590.28" departLane="best">
        <route edges="618055291#1 618055291#2 618055291#3 618055291#4 619019400#8 320898734#0 428030875#3 428030875#4 428030875#5 75223332 651186341#0 651186341#1 651186341#2 442469224#1 442867200#1 442867200#2 44364379#2"/>
    </vehicle>
    <vehicle id="bus48" type="bus_bus" depart="7751.78" departLane="best">
        <route edges="111925884#1 412296575#1 412296575#2 435491726#1 435491726#5 442469223#1 435343301#1 144953677#0 144953677#1 144953677#2 370644951#5 370644951#6 370644951#7 370644951#9 370644951#10 370644951#11 370644951#12 370644951#13 370644951#14"/>
    </vehicle>
    <vehicle id="bus49" type="bus_bus" depart="7913.27" departLane="best" departSpeed="max">
        <route edges="-75036007#2 35557263#3 319515359#2 319515359#3 331470728#0 331470728#1 120863177#0 120863177#1 120863177#2 120863177#4 410089531#1 410089531#2 44364379#2 44364379#3 44364379#4 435393029#1 435393029#2"/>
    </vehicle>
    <vehicle id="bus50" type="bus_bus" depart="8074.77" departLane="best" departSpeed="max">
        <route edges="35557707 319662804#5 319662804#6 319662804#7 319662804#8 355775773 279864770#0 279864770#1 279864770#2 279864770#3 279864770#4 -479823503 331470728#0 331470728#1 120863177#0 120863177#1 120863177#2 120863177#4 410089531#1 410089531#2 435491726#1 435491726#5 435491726#9 435491726#13 435491726#15 435491726#18 75223322#0 24252788#1 401506730#8"/>
    </vehicle>
    <vehicle id="bus51" type="bus_bus" depart="8236.26" departLane="best" departSpeed="max">
        <route edges="279864813#0 413976459#0 413976459#1 428032853#2 442334036#0 442334036#1 435707014#4 435707014#5 75223312#1 618055292#0 618055292#1 618055291#0"/>
    </vehicle>
    <vehicle id="bus52" type="bus_bus" depart="8397.76" departLane="best" departSpeed="max">
        <route edges="172244021#0 172244021#1 44364644#2 44364644#3 129897442#5 111925884#0 111925884#1 412296575#1 412296575#2 435491726#1 435491726#5 435491726#9 435491726#13 435491726#15 435491726#18 75223322#0 75223322#1 151316320#7 304437031"/>
    </vehicle>
    <vehicle id="bus53" type="bus_bus" depart="8559.25" departLane="best">
        <route edges="75243088#3 75243088#4 75243088#5 401506730#0 401506730#1 401506730#2 401506730#3 401506730#4 401506730#5 401506730#6 401506730#7 401506730#8 75223312#1 618055292#0 618055292#1 618055291#0 413976459#3"/>
    </vehicle>
    <vehicle id="bus54" type="bus_bus" depart="8720.75" departLane="best">
        <route edges="35557263#1 35557263#2 35557263#3 319515359#2 319515359#3 331470728#0 331470728#1 120863177#0 120863177#1 120863177#2 120863177#4 410089531#1 410089531#2 442867200#7 172243635 111948492 618315978#1 618315978#2 298431255#1 298431255#2 39413204#0"/>
    </vehicle>
    <vehicle id="bus55" type="bus_bus" depart="8882.24" departLane="best">
        <route edges="126587263#2 406644981#0 406644981#1 435491726#5 435491726#9 435491726#13 435491726#15 75223312#1 618055292#0 618055292#1 618055291#0 618055291#1 618055291#2 618055291#3 618055291#4 619019400#8 279864789 279864811#0 279864811#1"/>
    </vehicle>
    <vehicle id="bus56" type="bus_bus" depart="9043.74" departLane="best">
        <route edges="304442660#2 24252801#2 24252801#3 24252801#4 344149309#3 401506730#0 401506730#1 401506730#2 401506730#3 401506730#4 401506730#5 401506730#6 401506730#7 401506730#8 618118083#1 618118082#2 412307193#0 412307193#1 442469224#1 442867200#1 442867200#2 442867200#7 442867200#8 412296083#1"/>
    </vehicle>
    <vehicle id="bus57" type="bus_bus" depart="9205.23" departLane="best">
        <route edges="24252801#3 24252801#4 344149309#3 401506730#0 401506730#1 401506730#2 401506730#3 401506730#4 401506730#5 401506730#6 401506730#7 401506730#8 618118083#1 618118082#2 412307193#0 412307193#1 442469224#1 442867200#1 442867200#2 172098498#2 410089534#0 410089534#3 410089534#4 410089534#6 410089534#7 410089534#8 410089534#9 129897418 299781215 319662804#8 355775773 279864770#0 279864770#1 279864770#2 279864770#3 279864770#4 279864770#5"/>
    </vehicle>
    <vehicle id="bus58" type="bus_bus" depart="9366.73" departLane="best">
        <route edges="-75036013#0 75036013#0 -428073531#0 442334036#1 435707014#4 435707014#5 618118083#1 618118082#2 412307193#0 412307193#1 442469224#1 442867200#1 442867200#2 442867200#7 172243635 111948492 618315978#1 618315978#2 412495541#1 412495541#2 412495541#3"/>
    </vehicle>
    <vehicle id="bus59" type="bus_bus" depart="9528.22" departLane="best">
        <route edges="24252801#2 24252801#3 24252801#4 344149309#3 401506730#0 401506730#1 401506730#2 401506730#3 401506730#4 401506730#5 401506730#6 401506730#7 401506730#8 435491726#18 435491726#20 435491726#21 435491726#22 75036027#0 75036027#1 75036027#2 75036027#3 619019400#1 619019400#2 619019400#3 619019400#4"/>
    </vehicle>
    <vehicle id="bus60" type="bus_bus" depart="9689.72" departLane="best" departSpeed="max">
        <route edges="4832866 355607761#0 75037344#1 442451693 442451694 391958206#0 413976463#0 75036032 619019400#1 -264858336 -75036017"/>
    </vehicle>
    <vehicle id="bus62" type="bus_bus" depart="10012.71" departLane="best">
        <route edges="24252788#1 430077168#0 430077169#0 430077169#1 430077169#2 435343301#1 144953677#0 144953677#1 144953677#2 144953677#3"/>
    </vehicle>
    <vehicle id="bus63" type="bus_bus" depart="10174.21" departLane="best">
        <route edges="75036010#0 75036010#1 -617934930 619019400#7 619019400#8 320898734#0 320898734#1 284929204#0 284929204#1 284929204#2 120863177#0 120863177#1 120863177#2 120863177#4 410089531#1 410089531#2"/>
    </vehicle>
    <vehicle id="bus64" type="bus_bus" depart="10335.70" departLane="best" departSpeed="max">
        <route edges="35557707 319662804#5 319662804#6 319662804#7 319662804#8 355775773 279864770#0 279864770#1 279864770#2 279864770#3 279864770#4 -479823503 331470728#0 331470728#1 120863177#0 120863177#1 120863177#2 120863177#4 410089531#1 410089531#2 435491726#1 435491726#5 435491726#9 435491726#13 435491726#15 435491726#18 435707014#4"/>
    </vehicle>
    <vehicle id="bus65" type="bus_bus" depart="10497.20" departLane="best">
        <route edges="442469224#1 435491726#5 435491726#9 435491726#13 435491726#15 435491726#18 75223322#0 75223322#1 75223322#2 75223322#3 304437030#0 304437030#1 304437030#2 304437030#3 304437030#4 304437030#5 304442660#0 304442660#1 304442660#2 24252801#2 24252801#3 24252801#4 24252801#5 24252801#6"/>
    </vehicle>
    <vehicle id="bus67" type="bus_bus" depart="10820.19" departLane="best">
        <route edges="430410163#6 44364644#1 44364644#2 44364644#3 129897442#5 111925884#0 111925884#1 412296575#1 412296575#2 435491726#1 435491726#5 435491726#9 435491726#13 435491726#15 75223312#1 618055292#0 618055292#1 618055291#0 618055291#1 618055291#2 618055291#3 618055291#4 619019400#8 320898734#0 428030875#3 428030875#4"/>
    </vehicle>
    <vehicle id="bus68" type="bus_bus" depart="10981.68" departLane="best" departSpeed="max">
        <route edges="75243088#0 75243088#1 75243088#2 75243088#3 75243088#4 75243088#5 401506730#0 401506730#1 401506730#2 401506730#3 401506730#4 401506730#5 401506730#6 401506730#7 401506730#8 75223312#1 618055292#0 618055292#1 618055291#0 618055291#1 618055291#2 618055291#3 618055291#4 619019400#8 320898734#0 320898734#1 284929204#0 284929204#1 284929204#2 120863177#0 120863177#1"/>
    </vehicle>
    <vehicle id="bus69" type="bus_bus" depart="11143.18" departLane="best" departSpeed="max">
        <route edges="4832866 355607761#0 355607761#2 442451678#0 435707014#1 435707014#3 435707014#4 435707014#5 75223312#1 618055292#0 618055292#1 618055291#0 618055291#1 618055291#2 618055291#3 618055291#4 619019400#8 320898734#0 320898734#1 284929209#0 284929209#1 284929209#2 284929209#3"/>
    </vehicle>
    <vehicle id="bus70" type="bus_bus" depart="11304.67" departLane="best">
        <route edges="172098498#2 410089534#0 410089534#3 410089534#4 410089534#6 410089534#7 654035438 331470728#8 331470728#9 129897427 319662804#2 319662804#3 319662804#5 35557447#0 35557447#1"/>
    </vehicle>
    <vehicle id="bus71" type="bus_bus" depart="11466.17" departLane="best">
        <route edges="336833695#0 336833695#1 284929204#0 284929204#1 284929204#2 120863177#0 120863177#1 120863177#2 120863177#4 410089531#1 410089531#2 435491726#1 435491726#5 435491726#9 435491726#13 435491726#15 435491726#18 75223322#0 75223322#1 151316320#7 304437031 298367768#2 298367768#3 298367768#7"/>
    </vehicle>
    <vehicle id="bus72" type="bus_bus" depart="11627.66" departLane="best">
        <route edges="279864770#4 -479823503 35557265#0 35557265#1 35557265#2 35557265#3 428030875#2 428030875#3 428030875#4 428030875#5 75223332 651186341#0 651186341#1"/>
    </vehicle>
    <vehicle id="bus73" type="bus_bus" depart="11789.16" departLane="best">
        <route edges="35557263#3 319515359#2 319515359#3 331470728#0 331470728#1 120863177#0 120863177#1 120863177#2 120863177#4 410089531#1 410089531#2 435491726#1 435491726#5 442469224#1 442867200#1 517107201#0 517107201#1"/>
    </vehicle>
    <vehicle id="bus74" type="bus_bus" depart="11950.65" departLane="best">
        <route edges="401506730#6 401506730#7 401506730#8 75223312#1 618055292#0 618055292#1 618055291#0 618055291#1 618055291#2 618055291#3 618055291#4 619019400#8 320898734#0 320898734#1 284929209#0 284929209#1 284929209#2 35557263#2 -75036007#1"/>
    </vehicle>
    <vehicle id="bus75" type="bus_bus" depart="12112.15" departLane="best">
        <route edges="75243088#5 401506730#0 401506730#1 401506730#2 401506730#3 401506730#4 401506730#5 401506730#6 401506730#7 401506730#8 618118083#1 618118082#2 412307193#0 412307193#1 442469224#1 442867200#1 442867200#2 44364379#2 44364379#3 44364379#4"/>
    </vehicle>
    <vehicle id="bus76" type="bus_bus" depart="12273.64" departLane="best">
        <route edges="75223312#1 618055292#0 618055292#1 618055291#0 618055291#1 618055291#2 618055291#3 618055291#4 619019400#8 320898734#0 320898734#1 284929204#0 284929204#1 284929204#2 331470728#6 -654035438 654035438"/>
    </vehicle>
    <vehicle id="bus77" type="bus_bus" depart="12435.14" departLane="best">
        <route edges="467318483#0 467318483#2 618118082#2 412307193#0 412307193#1 442469224#1 442867200#1 442867200#2 442867200#7 172243635 412495542#0 412495542#1 279043423#0 279043423#1 430410163#6 44364644#1 172244021#2 172244021#3"/>
    </vehicle>
    <vehicle id="bus78" type="bus_bus" depart="12596.64" departLane="best" departSpeed="max">
        <route edges="370644951#0 126587263#2 406644981#0 406644981#1 442867200#1 442867200#2 172098498#2 410089534#0 410089534#3 410089534#4 410089534#6 410089534#7 410089534#8 410089534#9 129897418 299781215 319662804#8 355775773 279864770#0 279864770#1 279864770#2"/>
    </vehicle>
    <vehicle id="bus79" type="bus_bus" depart="12758.13" departLane="best">
        <route edges="331470728#0 331470728#1 129897450 299781216 355775773 279864770#0 279864770#1 279864770#2 279864770#3 279864770#4 -479823503 35557265#0 35557265#1 35557265#2 35557265#3 35557265#4 35557265#5 279864811#0 75036010#0 75036010#1 75036010#2 320898743#1 75036014#0 -75036014#0"/>
    </vehicle>
    <vehicle id="bus80" type="bus_bus" depart="12919.63" departLane="best" departSpeed="max">
        <route edges="279864813#0 413976459#0 413976459#1 428032853#2 442334036#0 442334036#1 435707014#4"/>
    </vehicle>
    <vehicle id="bus82" type="bus_bus" depart="13242.62" departLane="best">
        <route edges="75037344#1 627176989 627176990#0 627176990#1 -428073531#1 -428073531#0 442334036#1 435707014#4 435707014#5 618118083#1 618118082#2 412307193#0 412307193#1 442469224#1 442867200#1 442867200#2 172098498#2 410089534#0 410089534#3 410089534#4 410089534#6"/>
    </vehicle>
    <vehicle id="bus83" type="bus_bus" depart="13404.11" departLane="best">
        <route edges="401506730#2 401506730#3 401506730#4 401506730#5 401506730#6 401506730#7 430077168#0 430077169#0 430077169#1 430077169#2 430077169#4 430077169#5 430077169#6 430077169#8 430410163#1 430410163#2 430410163#3 430410163#5"/>
    </vehicle>
    <vehicle id="bus84" type="bus_bus" depart="13565.61" departLane="best">
        <route edges="370644951#2 370644951#5 430072721#0 430072721#3 430072721#4 430072721#5 430072721#6 430072721#7 430072721#8 618118685#1 618118686#2 412307193#0 412307193#1 442469224#1 442867200#1 442867200#2 172098498#2 410089534#0 410089534#3 410089534#4 410089534#6 44364645#7"/>
    </vehicle>
    <vehicle id="bus85" type="bus_bus" depart="13727.10" departLane="best">
        <route edges="129897450 299781216 355775773 279864770#0 279864770#1 279864770#2 279864770#3 279864770#4 -479823503 35557265#0 35557265#1 35557265#2 35557265#3 35557265#4 35557265#5 279864811#0 75036010#0 75036010#1 -617934930 75036020"/>
    </vehicle>
    <vehicle id="bus86" type="bus_bus" depart="13888.60" departLane="best">
        <route edges="412296575#1 412296575#2 435491726#1 435491726#5 435491726#9 435491726#13 435491726#15 75223312#1 618055292#0 618055292#1 618055291#0 618055291#1 618055291#2 618055291#3 618055291#4 619019400#8 320898734#0 428030875#3 428030875#4"/>
    </vehicle>
    <vehicle id="bus88" type="bus_bus" depart="14211.59" departLane="best">
        <route edges="618118082#2 435491726#13 435491726#15 75223312#1 618055292#0 618055292#1 618055291#0 618055291#1 618055291#2 618055291#3 618055291#4 619019400#8 320898734#0 320898734#1 284929209#0 284929209#1 284929209#2"/>
    </vehicle>
    <vehicle id="bus89" type="bus_bus" depart="14373.08" departLane="best">
        <route edges="412296575#1 412296575#2 435491726#1 435491726#5 435491726#9 435491726#13 618118082#2 412307193#0"/>
    </vehicle>
    <vehicle id="bus90" type="bus_bus" depart="14534.58" departLane="best">
        <route edges="391958207#5 -428035708 320898740 320898734#0 320898734#1 284929209#0 284929209#1 284929209#2 35557263#2 75036007#2"/>
    </vehicle>
    <vehicle id="bus91" type="bus_bus" depart="14696.07" departLane="best" departSpeed="max">