<?xml version="1.0" encoding="UTF-8"?>

<!-- generated on Tue Jul 30 14:35:25 2019 by Eclipse SUMO duarouter Version v1_2_0+0622-cbc8645
<configuration xmlns:xsi="http://www.w3.org/2001/XMLSchema-instance" xsi:noNamespaceSchemaLocation="http://sumo.dlr.de/xsd/duarouterConfiguration.xsd">

    <input>
        <net-file value="/home/andres/Documents/tesis_pregrado/sumo_simulation/sim_config/km2_lince/2019-07-30-14-35-19/osm.net.xml"/>
        <route-files value="/home/andres/Documents/tesis_pregrado/sumo_simulation/sim_config/km2_lince/2019-07-30-14-35-19/osm.motorcycle.trips.xml"/>
    </input>

    <output>
        <output-file value="routes.rou.xml"/>
        <alternatives-output value="routes.rou.alt.xml"/>
    </output>

    <time>
        <begin value="0"/>
        <end value="3600.0"/>
    </time>

    <report>
        <no-warnings value="true"/>
        <ignore-errors value="true"/>
        <no-step-log value="true"/>
    </report>

</configuration>
-->

<routes xmlns:xsi="http://www.w3.org/2001/XMLSchema-instance" xsi:noNamespaceSchemaLocation="http://sumo.dlr.de/xsd/routes_file.xsd">
    <vType id="moto_motorcycle" vClass="motorcycle"/>
    <vehicle id="moto0" type="moto_motorcycle" depart="0.00" departLane="best">
        <route edges="324601502#0 324601502#1 326569903#4 326569903#5 327607339#2 118793920 320249039#0 320249039#2 329876536#0 -646591409"/>
    </vehicle>
    <vehicle id="moto1" type="moto_motorcycle" depart="11.17" departLane="best">
        <route edges="24295246#2 24295246#3 293115457#1 156115617#3 156115617#4 156115617#5 24295136#13 24295136#14"/>
    </vehicle>
    <vehicle id="moto2" type="moto_motorcycle" depart="22.34" departLane="best">
        <route edges="329505437#0 360771086#3 360771086#4 360771086#6 360771086#7 360771086#8 360771086#10 360771086#13 360771086#14 326569837#4"/>
    </vehicle>
    <vehicle id="moto3" type="moto_motorcycle" depart="33.51" departLane="best" departSpeed="max">
        <route edges="435546424#0 435546424#1 435546424#2 344084913#0 344084913#1 344084913#2 344084913#3 344084913#4 344084913#5 344084913#7 344084913#8 344084913#9 344084913#11 344084913#13 324601502#0 324601502#1 326569903#4 326569903#5 118793923#0 118793923#1"/>
    </vehicle>
    <vehicle id="moto4" type="moto_motorcycle" depart="44.68" departLane="best">
        <route edges="279653481#6 279653481#7 317137449#8 317137449#9 317137449#10 317137449#11 317137449#12 317137449#13 317137449#14 317137449#17 360771086#21 111895261"/>
    </vehicle>
    <vehicle id="moto5" type="moto_motorcycle" depart="55.86" departLane="best">
        <route edges="24295136#16 24295136#17 24295136#18 293115460#7 293115460#8"/>
    </vehicle>
    <vehicle id="moto6" type="moto_motorcycle" depart="67.03" departLane="best">
        <route edges="324601502#6 118793922#3 320601926#0 369135366#0 435541876#1 329505437#0 360771086#3 360771086#4 360771086#6 360771086#7 360771086#8 360771086#10 360771086#13 360771086#14 360771086#15 360771086#18 360771086#19 293115460#0 293115460#3 293115460#4 293115460#5 293115460#6 24295136#20 522768610#4 -24267146#0 317137449#9 317137449#10"/>
    </vehicle>
    <vehicle id="moto7" type="moto_motorcycle" depart="78.20" departLane="best">
        <route edges="24295136#17 24295136#18 317137449#11 317137449#12 317137449#13 317137449#14 317137449#17 129281459#0 129281459#1 344084913#0 344084913#1 344084913#2 344084913#3 344084913#4 344084913#5 344084913#7 344084913#8 344084913#9 344084913#11 344084913#13 324601502#0 324601502#1 326569903#4 326569903#5 118793923#0 320249068#5"/>
    </vehicle>
    <vehicle id="moto8" type="moto_motorcycle" depart="89.37" departLane="best">
        <route edges="360771086#19 293115460#0 293115460#3 293115460#4 293115460#5 293115460#6 24295136#20 522768610#4 522768610#5 522768610#6 133242880#1 -133242880#1"/>
    </vehicle>
    <vehicle id="moto9" type="moto_motorcycle" depart="100.54" departLane="best">
        <route edges="360771086#15 344084913#7 344084913#8 344084913#9 344084913#11 344084913#13 324601502#0 324601502#1 326569903#4 326569903#5"/>
    </vehicle>
    <vehicle id="moto10" type="moto_motorcycle" depart="111.71" departLane="best">
        <route edges="24305286#10 321572180#3 321572180#4 321572180#5 321572180#6 321572180#7 321572180#8 496739503 344372307#0 344372307#1 344372307#2 324923340 321544178 327607339#0 327607339#1 327607339#2 324924047#0 324924047#1 156115617#0"/>
    </vehicle>
    <vehicle id="moto11" type="moto_motorcycle" depart="122.88" departLane="best">
        <route edges="522768610#0 151073587#1 293115460#4 293115460#5 293115460#6 293115460#7 293115460#8 293115460#9 293115460#10 293115460#11 293115460#15 293115460#16 293115460#17 24305273#1 24305273#2 24305273#3"/>
    </vehicle>
    <vehicle id="moto12" type="moto_motorcycle" depart="134.05" departLane="best">
        <route edges="118793923#0 118793923#1 118793923#2 118793923#3 118793923#4 118793923#5"/>
    </vehicle>
    <vehicle id="moto13" type="moto_motorcycle" depart="145.22" departLane="best" departSpeed="max">
        <route edges="401494444#0 401494444#1 401494444#2 401494444#3 401494444#4 401494444#5 401494444#6 401494444#8 401494444#11 401494444#12 401494444#13 329505437#0 329505437#4 321544178"/>
    </vehicle>
    <vehicle id="moto14" type="moto_motorcycle" depart="156.40" departLane="best">
        <route edges="360771086#18 360771086#19 360771086#20 129281459#0 129281459#1 344084913#0 344084913#1 344084913#2 344084913#3 344084913#4 344084913#5 344084913#7 344084913#8 344084913#9 344084913#11 344084913#13 324601502#0 324601502#1 324601502#3 324601502#4 329505437#4 118793921#0 118793921#1 118793921#2 118793921#3 118793921#4 118793921#5 329505240#0 329505240#1 329505240#2 329505240#3"/>
    </vehicle>
    <vehicle id="moto15" type="moto_motorcycle" depart="167.57" departLane="best">
        <route edges="24305365#3 24305365#4 24305399#0 24305399#1 24305399#2 24295136#2 24295136#4 24295136#5 24295136#8 24295136#9 24295136#11 24295136#12 24295136#13 24295136#14 24295136#15 24295136#16 24295136#17 24295136#18 317137449#11 317137449#12"/>
    </vehicle>
    <vehicle id="moto16" type="moto_motorcycle" depart="178.74" departLane="best">
        <route edges="360771086#7 360771086#8 324601502#0 324601502#1 324601502#3 324601502#4 329505437#4 118793921#0 118793921#1 118793921#2 118793921#3 118793921#4 118793921#5 329505240#0 329505240#1 329505240#2 329505240#3 329505240#4 329505240#5 321544188 24305365#4 24305365#5 24305365#6 321572180#0"/>
    </vehicle>
    <vehicle id="moto17" type="moto_motorcycle" depart="189.91" departLane="best">
        <route edges="401494444#2 401494444#3 401494444#4 401494444#5 401494444#6 401494444#8 321396548#0 321396548#3 118793920 320249039#0 320249039#2"/>
    </vehicle>
    <vehicle id="moto18" type="moto_motorcycle" depart="201.08" departLane="best">
        <route edges="327607339#0 327607339#1 327607339#2 324924047#0 324924047#1 156115617#0 156115617#1 156115617#2 156115617#3 156115617#4 156115617#5 156115617#6 156115617#7 156115617#8 111940154#1 111940154#2"/>
    </vehicle>
    <vehicle id="moto19" type="moto_motorcycle" depart="212.25" departLane="best">
        <route edges="24295136#20 522768610#4 -24267146#0 317137449#9 317137449#10 317137449#11 293115460#6 293115460#7 293115460#8 293115460#9 293115460#10 293115460#11 293115460#15 293115460#16 293115460#17 24305273#1 24305273#2 24305273#3 24305273#4 24305273#5 24305273#6 24305273#7 24295136#14 24295246#0"/>
    </vehicle>
    <vehicle id="moto20" type="moto_motorcycle" depart="223.42" departLane="best">
        <route edges="118793921#3 118793921#4 118793921#5 329505240#0 329505240#1 329505240#2 24295136#4 24295136#5 24295136#8 24295136#9 24295136#11 24295136#12 24295136#13 24295136#14 24295136#15 24295136#16 24295136#17 24295136#18"/>
    </vehicle>
    <vehicle id="moto21" type="moto_motorcycle" depart="234.59" departLane="best">
        <route edges="118793923#3 646591409 329876536#1 436277095#6 436277095#7 436277095#8 436277095#9 118793919#0 360771086#10 360771086#13 360771086#14 360771086#15 360771086#18 360771086#19 360771086#20 129281459#0 129281459#1 24295146#0 24295146#1"/>
    </vehicle>
    <vehicle id="moto22" type="moto_motorcycle" depart="245.76" departLane="best">
        <route edges="321572180#8 496739504#0 496739504#1 496739504#2 24295136#1 24295136#2 24295136#4 24295136#5 24295136#8 24295136#9 24295136#11 24295136#12 156115617#6 24305286#1 24305286#2"/>
    </vehicle>
    <vehicle id="moto23" type="moto_motorcycle" depart="256.94" departLane="best">
        <route edges="24305365#0 24305365#1 24305365#2 152762229#0 152762229#1 152762229#2 152762229#4 152762229#5 24295136#8 24295136#9 24295136#11 24295136#12 24295136#13 24295136#14 24295136#15 24295136#16 24295136#17 24295136#18 24295136#20 522768610#4 522768610#5 24295100#1"/>
    </vehicle>
    <vehicle id="moto24" type="moto_motorcycle" depart="268.11" departLane="best">
        <route edges="324601502#6 118793922#3 320601926#0 369135366#0 435541876#1 329505437#0 329505437#4 118793921#0 118793921#1 118793921#2 118793921#3 118793921#4 118793921#5 329505240#0 329505240#1 329505240#2 329505240#3 329505240#4 329505240#5 321544196#0"/>
    </vehicle>
    <vehicle id="moto25" type="moto_motorcycle" depart="279.28" departLane="best">
        <route edges="156115617#2 293115457#2 314360433#9 24295254#0 344084913#13 324601502#0 324601502#1 324601502#3 324601502#4 329505437#4 118793921#0 118793921#1 118793921#2 118793921#3 118793921#4 118793921#5 329505240#0 329505240#1 329505240#2 329505240#3"/>
    </vehicle>
    <vehicle id="moto26" type="moto_motorcycle" depart="290.45" departLane="best">
        <route edges="153125093#1 152762229#10 320249068#4 320249068#5 320249039#0 320249039#2 329876536#0 329876536#1 329876536#2 329876536#3 284927029#0 -684284130 436277095#3 24305294#0"/>
    </vehicle>
    <vehicle id="moto27" type="moto_motorcycle" depart="301.62" departLane="best">
        <route edges="633508213#5 522768610#0 151073587#1 317137449#14 317137449#17 129281459#0 129281459#1 344084913#0 344084913#1 344084913#2 344084913#3 344084913#4 344084913#5 344084913#7 344084913#8 344084913#9 344084913#11 344084913#13 324601502#0 324601502#1 324601502#3 324601502#4 329505437#4 118793921#0 571354729 -344372307#1 -344372307#0 329505082 496739504#0 496739504#1 496739504#2 321572180#5 321572180#6 321572180#7 321572180#8"/>
    </vehicle>
    <vehicle id="moto28" type="moto_motorcycle" depart="312.79" departLane="best">
        <route edges="317137449#17 129281459#0 129281459#1 24295146#0 24295146#1 24295146#2 401494444#2 401494444#3 401494444#4 401494444#5 401494444#6 401494444#8 284925148#0 326569902#4"/>
    </vehicle>
    <vehicle id="moto29" type="moto_motorcycle" depart="323.96" departLane="best" departSpeed="max">
        <route edges="396425746 344372307#1 344372307#2 324923340 321544178 327607339#0 327607339#1 327607339#2 118793919#0 360771086#10 360771086#13 360771086#14 360771086#15 360771086#18 360771086#19 360771086#20 129281459#0 129281459#1 344084913#0 344084913#1 344084913#2 344084913#3 344084913#4"/>
    </vehicle>
    <vehicle id="moto30" type="moto_motorcycle" depart="335.13" departLane="best">
        <route edges="24295136#20 522768610#4 -24267146#0 317137449#9 317137449#10 317137449#11 317137449#12 317137449#13 317137449#14 317137449#17 129281459#0 129281459#1 344084913#0 344084913#1 344084913#2 344084913#3 344084913#4 344084913#5 344084913#7 344084913#8 344084913#9 344084913#11 344084913#13 321396548#3 118793920 320249039#0 320249039#2 111896823#0"/>
    </vehicle>
    <vehicle id="moto31" type="moto_motorcycle" depart="346.31" departLane="best">
        <route edges="24305273#3 24305273#4 24305273#5 24305273#6 24305273#7 24295136#14 24295136#15 24295136#16 24295136#17 24295136#18 317137449#11 317137449#12 24295139#6 24295139#7"/>
    </vehicle>
    <vehicle id="moto32" type="moto_motorcycle" depart="357.48" departLane="best">
        <route edges="24295136#13 24295136#14 24295136#15 24295136#16 24295136#17 24295136#18 317137449#11 317137449#12 317137449#13 317137449#14 633508213#5 522768610#0"/>
    </vehicle>
    <vehicle id="moto33" type="moto_motorcycle" depart="368.65" departLane="best">
        <route edges="401494444#8 321396548#0 360771086#10 24295254#4 24295254#5"/>
    </vehicle>
    <vehicle id="moto34" type="moto_motorcycle" depart="379.82" departLane="best">
        <route edges="324924047#1 156115617#0 156115617#1 156115617#2 156115617#3 156115617#4 156115617#5 156115617#6 24305286#1 24305286#2 329876536#3 284927029#0 284927029#1 24305365#1 24305365#2"/>
    </vehicle>
    <vehicle id="moto35" type="moto_motorcycle" depart="390.99" departLane="best">
        <route edges="436277095#5 436277095#6 436277095#7 436277095#8 436277095#9 118793919#0 118793919#3 401494444#11 401494444#12 118793918#4 327607511#0 327607511#1 326569902#0 326569902#2 284927032#3"/>
    </vehicle>
    <vehicle id="moto36" type="moto_motorcycle" depart="402.16" departLane="best">
        <route edges="24295147#0 24295147#1 360771086#20 129281459#0 129281459#1 344084913#0 344084913#1 344084913#2 344084913#3 344084913#4 344084913#5 344084913#7 344084913#8 344084913#9 344084913#11 344084913#13 324601502#0 324601502#1 324601502#3 324601502#4 329505437#4 118793921#0 118793921#1 118793921#2 118793921#3 118793921#4 118793921#5 329505240#0 329505240#1 329505240#2 24295136#4"/>
    </vehicle>
    <vehicle id="moto37" type="moto_motorcycle" depart="413.33" departLane="best">
        <route edges="317137449#3 317137449#7 317137449#8 317137449#9 317137449#10 317137449#11 24305223#3 24305223#4 24295246#2 24295139#4"/>
    </vehicle>
    <vehicle id="moto38" type="moto_motorcycle" depart="424.50" departLane="best">
        <route edges="320249068#3 320249068#4 320249068#5 320249039#0 320249039#2 329876536#0 329876536#1 329876536#2 329876536#3 284927029#0 -684284130 436277095#3 436277095#4 436277095#5"/>
    </vehicle>
    <vehicle id="moto39" type="moto_motorcycle" depart="435.67" departLane="best">
        <route edges="24305399#2 24295136#2 24295136#4 24295136#5 24295136#8 24295136#9 24295136#11 24295136#12 24295136#13"/>
    </vehicle>
    <vehicle id="moto40" type="moto_motorcycle" depart="446.85" departLane="best">
        <route edges="684284130 -684284130 436277095#3 436277095#4 436277095#5 436277095#6 436277095#7 436277095#8 436277095#9 118793919#0 360771086#10 360771086#13 360771086#14 360771086#15 360771086#18 360771086#19 360771086#20 129281459#0 129281459#1 24295146#0 24295146#1 302109830#0"/>
    </vehicle>
    <vehicle id="moto41" type="moto_motorcycle" depart="458.02" departLane="best">
        <route edges="118793922#3 320601926#0 369135366#0 435541876#1 329505437#0 360771086#3 360771086#4 360771086#6 360771086#7 360771086#8 360771086#10 360771086#13 360771086#14 326569837#4 326569837#5 156115617#0 156115617#1 156115617#2 156115617#3 156115617#4 156115617#5 156115617#6 156115617#7 156115617#8 111940154#1 111940154#2"/>
    </vehicle>
    <vehicle id="moto42" type="moto_motorcycle" depart="469.19" departLane="best">
        <route edges="118793923#6 118793923#7 24305365#2 24305365#3 24305365#4 24305365#5 24305365#6 321572180#0 321572180#1 321572180#2 321572180#3"/>
    </vehicle>
    <vehicle id="moto43" type="moto_motorcycle" depart="480.36" departLane="best" departSpeed="max">
        <route edges="360771086#0 360771086#1 329505437#4 118793921#0 571354729 -344372307#1 -344372307#0 329505082 496739504#0 496739504#1 496739504#2 24295136#1 24305399#3"/>
    </vehicle>
    <vehicle id="moto44" type="moto_motorcycle" depart="491.53" departLane="best">
        <route edges="118793919#0 321396548#3 118793920 320249039#0 320249039#2 329876536#0 329876536#1 329876536#2 329876536#3 284927029#0 -684284130 436277095#3 24305294#0"/>
    </vehicle>
    <vehicle id="moto45" type="moto_motorcycle" depart="502.70" departLane="best">
        <route edges="646591409 329876536#1 24295136#11 24295136#12 156115617#6 24305286#1 314360433#5"/>
    </vehicle>
    <vehicle id="moto46" type="moto_motorcycle" depart="513.87" departLane="best">
        <route edges="522768610#5 522768610#6 133242880#1 279653481#5 279653481#6 279653481#7 317137449#8 317137449#9 317137449#10 317137449#11 317137449#12 317137449#13 317137449#14 317137449#17 129281459#0 129281459#1 24295146#0 24295146#1 24295146#2 401494444#2"/>
    </vehicle>
    <vehicle id="moto47" type="moto_motorcycle" depart="525.04" departLane="best">
        <route edges="-24295097#0 279653481#1 279653481#2 279653481#3 279653481#5 279653481#6 279653481#7 317137449#8 317137449#9 317137449#10 317137449#11 317137449#12 317137449#13 317137449#14 317137449#17 129281459#0 129281459#1 344084913#0 344084913#1 344084913#2 344084913#3 344084913#4 344084913#5 344084913#7 344084913#8 344084913#9 344084913#11 344084913#13 324601502#0 324601502#1 324601502#3 324601502#4 329505437#4 118793921#0 118793921#1 118793921#2 118793921#3 118793921#4 118793921#5 329505240#0"/>
    </vehicle>
    <vehicle id="moto48" type="moto_motorcycle" depart="536.21" departLane="best">
        <route edges="326569902#4 326569902#5 326569837#0 326569837#1 326569837#4 326569837#5 156115617#0 156115617#1 156115617#2 293115457#2 314360433#9"/>
    </vehicle>
    <vehicle id="moto49" type="moto_motorcycle" depart="547.39" departLane="best">
        <route edges="24295147#1 360771086#20 129281459#0 129281459#1 344084913#0 344084913#1 344084913#2 344084913#3 344084913#4 344084913#5 344084913#7 344084913#8 344084913#9 344084913#11 344084913#13 324601502#0 324601502#1 324601502#3 324601502#4 329505437#4 118793921#0 571354729 -344372307#1 -344372307#0 329505082 496739504#0 496739504#1 496739504#2 321572180#5 321572180#6 321572180#7 321572180#8"/>
    </vehicle>
    <vehicle id="moto50" type="moto_motorcycle" depart="558.56" departLane="best">
        <route edges="118793923#7 24305365#2 152762229#0 152762229#1 152762229#2 152762229#4 152762229#5 24295136#8 24295136#9 24295136#11 24295136#12 24295136#13 24295136#14 24295136#15 24295136#16 24295136#17 24295136#18 24295136#20 522768610#4 522768610#5 522768610#6 133242880#1 279653481#5"/>
    </vehicle>
    <vehicle id="moto51" type="moto_motorcycle" depart="569.73" departLane="best">
        <route edges="293115460#0 293115460#3 293115460#4 293115460#5 293115460#6 24295136#20 522768610#4"/>
    </vehicle>
    <vehicle id="moto52" type="moto_motorcycle" depart="580.90" departLane="best">
        <route edges="401494444#8 321396548#0 360771086#10 360771086#13 360771086#14 326569837#4 326569837#5 156115617#0 156115617#1 156115617#2 156115617#3 24295139#3 24295139#4"/>
    </vehicle>
    <vehicle id="moto53" type="moto_motorcycle" depart="592.07" departLane="best" departSpeed="max">
        <route edges="314360433#0 314360433#1 314360433#2 24305294#2 24305294#3 156115617#8 156115617#9"/>
    </vehicle>
    <vehicle id="moto54" type="moto_motorcycle" depart="603.24" departLane="best">
        <route edges="436277095#4 436277095#5 436277095#6 436277095#7 436277095#8 436277095#9 118793919#0 360771086#10 360771086#13 360771086#14 360771086#15 344084913#7 24295250#0 401494444#5 401494444#6"/>
    </vehicle>
    <vehicle id="moto55" type="moto_motorcycle" depart="614.41" departLane="best">
        <route edges="24305223#1 317137449#12 317137449#13 317137449#14 317137449#17 129281459#0 129281459#1 344084913#0 344084913#1 344084913#2 344084913#3 344084913#4 344084913#5 344084913#7 344084913#8 344084913#9 344084913#11 344084913#13 324601502#0 324601502#1 324601502#3 324601502#4 329505437#4 118793921#0 571354729 -344372307#1 -344372307#0 329505082 496739504#0 496739504#1 496739504#2 321572180#5 321572180#6 321572180#7 321572180#8"/>
    </vehicle>
    <vehicle id="moto56" type="moto_motorcycle" depart="625.58" departLane="best">
        <route edges="321544196#3 118793923#7 24305365#2 152762229#0 152762229#1 152762229#2 152762229#4 152762229#5 152762229#8 152762229#9 152762229#10 320249068#4 118793923#1 153125093#1"/>
    </vehicle>
    <vehicle id="moto57" type="moto_motorcycle" depart="636.75" departLane="best">
        <route edges="344084913#2 344084913#3 344084913#4 344084913#5 344084913#7 344084913#8 326569837#4 326569837#5 156115617#0 156115617#1 156115617#2 293115457#2 314360433#9"/>
    </vehicle>
    <vehicle id="moto58" type="moto_motorcycle" depart="647.93" departLane="best">
        <route edges="344084913#9 344084913#11 344084913#13 321396548#3 118793920 320249039#0 320249039#2 329876536#0 329876536#1 24295136#11 314360433#6"/>
    </vehicle>
    <vehicle id="moto59" type="moto_motorcycle" depart="659.10" departLane="best">
        <route edges="-133242880#1 133242880#1 279653481#5 279653481#6 279653481#7 317137449#8 317137449#9 317137449#10 317137449#11 24305223#3"/>
    </vehicle>
    <vehicle id="moto60" type="moto_motorcycle" depart="670.27" departLane="best">
        <route edges="-344372307#0 329505082 496739504#0 496739504#1 496739504#2"/>
    </vehicle>
    <vehicle id="moto61" type="moto_motorcycle" depart="681.44" departLane="best" departSpeed="max">
        <route edges="435541876#0 435541876#1 329505437#0 360771086#3 360771086#4 360771086#6"/>
    </vehicle>
    <vehicle id="moto62" type="moto_motorcycle" depart="692.61" departLane="best">
        <route edges="24305225 24295136#17 24295136#18 317137449#11 317137449#12 317137449#13 317137449#14 317137449#17 129281459#0 129281459#1 344084913#0 344084913#1 344084913#2 344084913#3 344084913#4 344084913#5 344084913#7 344084913#8 344084913#9 344084913#11 344084913#13 321396548#3 118793919#0"/>
    </vehicle>
    <vehicle id="moto63" type="moto_motorcycle" depart="703.78" departLane="best" departSpeed="max">
        <route edges="435541876#0 435541876#1 329505437#0 360771086#3 360771086#4 360771086#6 360771086#7 360771086#8 360771086#10 360771086#13 360771086#14 360771086#15 360771086#18 360771086#19 293115460#0 633508213#5 522768610#0 522768610#1 522768610#2"/>
    </vehicle>
    <vehicle id="moto64" type="moto_motorcycle" depart="714.95" departLane="best">
        <route edges="118793921#5 329505240#0 329505240#1 329505240#2 24295136#4 24295136#5 24295136#8 24295136#9 24295136#11 24295136#12 24295136#13 24295136#14 24295136#15 24295136#16 24295136#17 24295136#18 293115460#7 293115460#8 293115460#9 293115460#10 293115460#11 293115460#15 293115460#16 293115460#17"/>
    </vehicle>
    <vehicle id="moto65" type="moto_motorcycle" depart="726.12" departLane="best">
        <route edges="118793920 320249039#0 436277095#8 436277095#9 118793919#0 360771086#10 360771086#13 360771086#14 360771086#15 360771086#18 360771086#19 360771086#20 129281459#0 129281459#1 344084913#0"/>
    </vehicle>
    <vehicle id="moto66" type="moto_motorcycle" depart="737.29" departLane="best">
        <route edges="344084913#3 344084913#4 344084913#5 344084913#7 344084913#8 344084913#9 344084913#11 344084913#13 321396548#3 118793920 320249039#0 320249039#2 329876536#0 329876536#1 329876536#2 329876536#3 284927029#0 284927029#1 24305365#1 24305365#2 152762229#0"/>
    </vehicle>
    <vehicle id="moto67" type="moto_motorcycle" depart="748.47" departLane="best">
        <route edges="293115460#6 317137449#11 317137449#12"/>
    </vehicle>
    <vehicle id="moto68" type="moto_motorcycle" depart="759.64" departLane="best">
        <route edges="24295147#0 24295147#1 360771086#20 129281459#0 129281459#1 24295146#0 24295146#1 24295146#2 401494444#2 401494444#3 401494444#4 401494444#5 401494444#6"/>
    </vehicle>
    <vehicle id="moto69" type="moto_motorcycle" depart="770.81" departLane="best">
        <route edges="279653481#7 317137449#8 317137449#9 317137449#10 317137449#11 317137449#12 317137449#13 317137449#14 317137449#17 129281459#0 129281459#1 344084913#0 344084913#1 344084913#2 344084913#3 344084913#4 344084913#5 344084913#7 344084913#8 344084913#9 344084913#11 344084913#13 324601502#0 324601502#1 324601502#3 324601502#4 329505437#4 118793921#0 571354729 -344372307#1 -344372307#0 329505082 496739504#0 496739504#1 496739504#2 24295136#1"/>
    </vehicle>
    <vehicle id="moto70" type="moto_motorcycle" depart="781.98" departLane="best" departSpeed="max">
        <route edges="317137449#0 24305273#1 24305273#2 24305273#3 24305273#4 24305273#5 24305286#0 24305286#1 24305286#2 24305286#4 24305286#5 24305286#6 152762229#4 152762229#5 152762229#8 111896823#2 111896823#3 329505240#0 329505240#1 329505240#2 329505240#3"/>
    </vehicle>
    <vehicle id="moto71" type="moto_motorcycle" depart="793.15" departLane="best">
        <route edges="24295136#1 24305399#3 24305399#4 496739503 344372307#0 344372307#1 344372307#2 324923340 321544178 327607339#0 327607339#1 327607339#2 118793919#0 360771086#10 24295254#4"/>
    </vehicle>
    <vehicle id="moto72" type="moto_motorcycle" depart="804.32" departLane="best">
        <route edges="646591409 329876536#1 436277095#6 436277095#7 436277095#8 436277095#9 118793919#0 324601502#0 324601502#1 324601502#3 324601502#4"/>
    </vehicle>
    <vehicle id="moto73" type="moto_motorcycle" depart="815.49" departLane="best" departSpeed="max">
        <route edges="133242880#0 133242880#1 279653481#5 279653481#6 279653481#7 317137449#8 317137449#9 317137449#10 317137449#11 293115460#6 293115460#7 293115460#8 293115460#9 293115460#10 293115460#11 293115460#15 293115460#16 293115460#17 24305273#1 24305273#2 24305273#3 24305273#4 24305273#5 24305273#6 24305273#7 24295136#14 24295136#15"/>
    </vehicle>
    <vehicle id="moto74" type="moto_motorcycle" depart="826.66" departLane="best">
        <route edges="24305286#1 24305286#2 24305286#4 24305286#5 24305286#6 152762229#4 152762229#5 152762229#8 152762229#9 152762229#10 320249068#4 320249068#5"/>
    </vehicle>
    <vehicle id="moto75" type="moto_motorcycle" depart="837.83" departLane="best">
        <route edges="24295136#4 24295136#5 24295136#8 24295136#9 24295136#11 24295136#12 24295136#13"/>
    </vehicle>
    <vehicle id="moto76" type="moto_motorcycle" depart="849.01" departLane="best">
        <route edges="118793921#0 571354729 -344372307#1 -344372307#0 329505082 496739504#0 496739504#1 496739504#2 321572180#5"/>
    </vehicle>
    <vehicle id="moto77" type="moto_motorcycle" depart="860.18" departLane="best">
        <route edges="24295136#20 522768610#4 -24267146#0 317137449#9 317137449#10 317137449#11 317137449#12 317137449#13 317137449#14 317137449#17 129281459#0 129281459#1 344084913#0 344084913#1 344084913#2 344084913#3 344084913#4 344084913#5 344084913#7 344084913#8 344084913#9 344084913#11 344084913#13 321396548#3 118793920 320249039#0 436277095#8"/>
    </vehicle>
    <vehicle id="moto78" type="moto_motorcycle" depart="871.35" departLane="best">
        <route edges="401494444#14 320601926#0 369135366#0 435541876#1 329505437#0 329505437#4 118793921#0 118793921#1 118793921#2"/>
    </vehicle>
    <vehicle id="moto79" type="moto_motorcycle" depart="882.52" departLane="best">
        <route edges="24295136#9 436277095#6 436277095#7 436277095#8 436277095#9 324924047#0 324924047#1 324924047#2"/>
    </vehicle>
    <vehicle id="moto80" type="moto_motorcycle" depart="893.69" departLane="best">
        <route edges="24295136#15 24295136#16 24295136#17 24295136#18 293115460#7 293115460#8 293115460#9 293115460#10 293115460#11 293115460#15 293115460#16 293115460#17 24305273#1 24305273#2 111940154#0 111940154#1 111940154#2 684284130 284927029#1 24305365#1 24305365#2 152762229#0 152762229#1"/>
    </vehicle>
    <vehicle id="moto81" type="moto_motorcycle" depart="904.86" departLane="best">
        <route edges="496739503 344372307#0 320249068#0 118793921#3 118793921#4 118793921#5 329505240#0 329505240#1 329505240#2 24295136#4 24295136#5 24295136#8 24295136#9 24295136#11 24295136#12 24295136#13 24295136#14 24295136#15 24295136#16 24295136#17 24295136#18 24295136#20 522768610#4 -24267146#0 317137449#9"/>
    </vehicle>
    <vehicle id="moto82" type="moto_motorcycle" depart="916.03" departLane="best">
        <route edges="293115460#5 24305223#3 24305223#4 24295246#2 24295246#3 24295246#4 633508215#0 344084913#7 344084913#8 344084913#9"/>
    </vehicle>
    <vehicle id="moto83" type="moto_motorcycle" depart="927.20" departLane="best">
        <route edges="360771086#18 360771086#19 293115460#0 293115460#3 293115460#4 293115460#5 293115460#6 24295136#20 522768610#4 -24267146#0 24267146#0"/>
    </vehicle>
    <vehicle id="moto84" type="moto_motorcycle" depart="938.38" departLane="best">
        <route edges="118793923#2 118793923#3 646591409 329876536#1 24295136#11 24295136#12 24295136#13 24295136#14 24295136#15 24295136#16 24295136#17 24295136#18 24295136#20 522768610#4 522768610#5 522768610#6 522768610#7 -24295097#0 279653481#1 279653481#2 279653481#3"/>
    </vehicle>
    <vehicle id="moto85" type="moto_motorcycle" depart="949.55" departLane="best">
        <route edges="279653481#7 317137449#8 317137449#9 317137449#10 317137449#11 24305223#3 24305223#4 24295246#2 24295246#3 293115457#1 293115457#2"/>
    </vehicle>
    <vehicle id="moto86" type="moto_motorcycle" depart="960.72" departLane="best">
        <route edges="329505240#4 24305286#9 24305399#2 24305399#3 24305399#4 496739503 344372307#0 344372307#1 344372307#2 324923340 321544178 327607339#0 327607339#1 327607339#2 118793919#0 360771086#10 360771086#13 360771086#14 360771086#15 344084913#7 24295250#0 401494444#5 326569837#1"/>
    </vehicle>
    <vehicle id="moto87" type="moto_motorcycle" depart="971.89" departLane="best">
        <route edges="633508213#0 633508213#1 317137449#17 129281459#0 129281459#1 344084913#0 344084913#1 344084913#2 344084913#3 344084913#4 344084913#5 344084913#7 344084913#8 344084913#9 344084913#11 344084913#13 321396548#3 118793920 320249039#0 320249039#2 329876536#0 -646591409 118793923#4 118793923#5"/>
    </vehicle>
    <vehicle id="moto88" type="moto_motorcycle" depart="983.06" departLane="best">