<routes xmlns:xsi="http://www.w3.org/2001/XMLSchema-instance" xsi:noNamespaceSchemaLocation="http://sumo.dlr.de/xsd/routes_file.xsd">
    <vType id="truck_truck" vClass="truck" />
    <vType emissionClass="HBEFA3/LDV_G_EU1" id="truck_truck_E1" vClass="truck" />
    <vType emissionClass="HBEFA3/LDV_G_EU2" id="truck_truck_E2" vClass="truck" />
    <vType emissionClass="HBEFA3/LDV_G_EU3" id="truck_truck_E3" vClass="truck" />
    <vType emissionClass="HBEFA3/LDV_G_EU4" id="truck_truck_E4" vClass="truck" />
    <vType emissionClass="HBEFA3/LDV_G_EU5" id="truck_truck_E5" vClass="truck" />
    <vType emissionClass="HBEFA3/LDV_G_EU6" id="truck_truck_E6" vClass="truck" />
    <trip depart="75855.00" from="428057111" id="truck0" to="-437506344" type="truck_truck_E5" />
    <trip depart="67510.00" from="299781215" id="truck1" to="284929209#0" type="truck_truck_E5" />
    <trip depart="46969.00" from="435491726#5" id="truck2" to="430072721#7" type="truck_truck_E4" />
    <trip depart="56945.00" from="619019400#2" id="truck3" to="120863177#0" type="truck_truck_E4" />
    <trip depart="23080.00" from="35557450#3" id="truck4" to="-442309012#1" type="truck_truck_E2" />
    <trip depart="3056.00" from="279864811#0" id="truck5" to="401506730#7" type="truck_truck_E5" />
    <trip depart="62636.00" from="-442309012#0" id="truck6" to="279864770#2" type="truck_truck_E6" />
    <trip depart="3290.00" from="430072204#0" id="truck7" to="410089534#7" type="truck_truck_E5" />
    <trip depart="28911.00" from="279864813#0" id="truck8" to="412495543#0" type="truck_truck_E6" />
    <trip depart="1393.00" from="44364379#4" id="truck9" to="-129897427" type="truck_truck_E5" />
    <trip depart="776.00" from="44364379#2" id="truck10" to="430077169#8" type="truck_truck_E3" />
    <trip depart="19782.00" from="320898740" id="truck11" to="172244021#1" type="truck_truck_E5" />
    <trip depart="26383.00" from="75036027#1" id="truck12" to="320898734#1" type="truck_truck_E6" />
    <trip depart="82753.00" from="618055289#1" id="truck14" to="413976463#2" type="truck_truck_E5" />
    <trip depart="58709.00" from="44364379#3" id="truck15" to="435491726#15" type="truck_truck_E6" />
    <trip depart="39896.00" from="410089534#0" id="truck16" to="75037344#1" type="truck_truck_E5" />
    <trip depart="45521.00" from="344149309#0" id="truck17" to="412296083#1" type="truck_truck_E6" />
    <trip depart="30715.00" from="44364645#4" id="truck18" to="428030875#4" type="truck_truck_E6" />
    <trip depart="45167.00" from="618055291#2" id="truck19" to="412495541#1" type="truck_truck_E2" />
    <trip depart="17112.00" from="430410163#6" id="truck20" to="-654035438" type="truck_truck_E5" />
    <trip depart="85695.00" from="284929204#2" id="truck21" to="304442660#0" type="truck_truck_E5" />
    <trip depart="28250.00" from="111948492" id="truck22" to="28707264#1" type="truck_truck_E6" />
    <trip depart="33262.00" from="126587263#2" id="truck23" to="304437030#2" type="truck_truck_E6" />
    <trip depart="66448.00" from="428046226#3" id="truck24" to="336833691#0" type="truck_truck_E6" />
    <trip depart="25396.00" from="336833691#0" id="truck25" to="279864789" type="truck_truck_E5" />
    <trip depart="86155.00" from="298431255#1" id="truck26" to="75036010#2" type="truck_truck_E5" />
    <trip depart="52202.00" from="428073531#1" id="truck27" to="428030874#1" type="truck_truck_E5" />
    <trip depart="84371.00" from="172244021#3" id="truck28" to="435491726#15" type="truck_truck_E5" />
    <trip depart="41241.00" from="75243088#1" id="truck30" to="428046226#3" type="truck_truck_E6" />
    <trip depart="35975.00" from="412296084" id="truck31" to="430077169#1" type="truck_truck_E5" />
    <trip depart="13487.00" from="517107201#1" id="truck32" to="442317099#2" type="truck_truck_E5" />
    <trip depart="28136.00" from="284929204#2" id="truck33" to="-442309012#2" type="truck_truck_E3" />
    <trip depart="73993.00" from="319662804#2" id="truck34" to="299781215" type="truck_truck_E6" />
    <trip depart="28491.00" from="279864770#4" id="truck35" to="75036013#2" type="truck_truck_E3" />
    <trip depart="17934.00" from="618118083#1" id="truck36" to="319662804#5" type="truck_truck_E5" />
    <trip depart="68193.00" from="430072204#2" id="truck37" to="35557265#2" type="truck_truck_E6" />
    <trip depart="55415.00" from="651186341#0" id="truck38" to="391958207#1" type="truck_truck_E6" />
    <trip depart="6625.00" from="412296575#2" id="truck40" to="298431255#3" type="truck_truck_E5" />
    <trip depart="58058.00" from="412495543#0" id="truck41" to="619019400#5" type="truck_truck_E1" />
    <trip depart="40721.00" from="35557265#0" id="truck42" to="284929204#2" type="truck_truck_E3" />
    <trip depart="81332.00" from="75243088#4" id="truck43" to="406644981#0" type="truck_truck_E6" />
    <trip depart="18539.00" from="120863177#1" id="truck44" to="-654035438" type="truck_truck_E6" />
    <trip depart="48511.00" from="129897442#0" id="truck45" to="428032853#2" type="truck_truck_E5" />
    <trip depart="2785.00" from="-75036013#2" id="truck47" to="35557263#2" type="truck_truck_E5" />
    <trip depart="65670.00" from="75243088#4" id="truck48" to="410089531#1" type="truck_truck_E5" />
    <trip depart="29747.00" from="75037344#1" id="truck49" to="618055291#2" type="truck_truck_E5" />
    <trip depart="44614.00" from="-264858336" id="truck50" to="435393029#2" type="truck_truck_E5" />
    <trip depart="46578.00" from="430077169#1" id="truck51" to="410089534#0" type="truck_truck_E2" />
    <trip depart="6539.00" from="298431255#1" id="truck52" to="428046226#3" type="truck_truck_E4" />
    <trip depart="47333.00" from="129897442#1" id="truck53" to="370644951#12" type="truck_truck_E2" />
    <trip depart="75426.00" from="370644951#7" id="truck54" to="75036020" type="truck_truck_E5" />
    <trip depart="3502.00" from="618118083#1" id="truck55" to="298431255#3" type="truck_truck_E5" />
    <trip depart="17732.00" from="401506730#5" id="truck56" to="24252801#5" type="truck_truck_E6" />
    <trip depart="34857.00" from="627176990#1" id="truck57" to="618055292#1" type="truck_truck_E5" />
    <trip depart="24619.00" from="304442660#1" id="truck58" to="428046226#3" type="truck_truck_E6" />
    <trip depart="74381.00" from="428030875#2" id="truck59" to="172243635" type="truck_truck_E4" />
    <trip depart="37842.00" from="442309013#2" id="truck60" to="410089534#3" type="truck_truck_E5" />
    <trip depart="60451.00" from="442334036#0" id="truck61" to="410089531#2" type="truck_truck_E6" />
    <trip depart="64486.00" from="-111924331#0" id="truck62" to="319788732#1" type="truck_truck_E3" />
    <trip depart="30604.00" from="-428073531#0" id="truck63" to="75036007#2" type="truck_truck_E6" />
    <trip depart="65470.00" from="618118685#1" id="truck64" to="44364645#7" type="truck_truck_E2" />
    <trip depart="23582.00" from="319515359#3" id="truck65" to="-75036013#2" type="truck_truck_E5" />
    <trip depart="39803.00" from="618118685#1" id="truck66" to="75036014#0" type="truck_truck_E4" />
    <trip depart="20796.00" from="-75036014#1" id="truck68" to="442309012#2" type="truck_truck_E4" />
    <trip depart="25415.00" from="442309013#4" id="truck69" to="144953677#2" type="truck_truck_E5" />
    <trip depart="66377.00" from="391958207#7" id="truck70" to="410089534#9" type="truck_truck_E6" />
    <trip depart="17299.00" from="298367768#7" id="truck71" to="618118082#2" type="truck_truck_E5" />
    <trip depart="68737.00" from="35557450#3" id="truck72" to="279864811#0" type="truck_truck_E6" />
    <trip depart="9423.00" from="410089534#3" id="truck73" to="435491726#15" type="truck_truck_E3" />
    <trip depart="11562.00" from="279864770#0" id="truck74" to="319662804#3" type="truck_truck_E4" />
    <trip depart="41421.00" from="75243088#3" id="truck75" to="428073531#0" type="truck_truck_E6" />
    <trip depart="56436.00" from="129897442#5" id="truck77" to="284929209#1" type="truck_truck_E5" />
    <trip depart="22933.00" from="320898734#1" id="truck78" to="412495543#0" type="truck_truck_E6" />
    <trip depart="78170.00" from="284929209#0" id="truck79" to="284929204#2" type="truck_truck_E3" />
    <trip depart="79905.00" from="111924331#0" id="truck80" to="428035708" type="truck_truck_E5" />
    <trip depart="10990.00" from="284929204#2" id="truck81" to="619019400#8" type="truck_truck_E5" />
    <trip depart="49581.00" from="618055291#1" id="truck82" to="111924331#1" type="truck_truck_E2" />
    <trip depart="52718.00" from="28707264#1" id="truck83" to="430072721#4" type="truck_truck_E5" />
    <trip depart="81535.00" from="75036013#0" id="truck85" to="412304785" type="truck_truck_E5" />
    <trip depart="38470.00" from="391958207#6" id="truck86" to="442334036#1" type="truck_truck_E2" />
    <trip depart="51875.00" from="44364379#3" id="truck87" to="279043423#2" type="truck_truck_E3" />
    <trip depart="74626.00" from="120863177#4" id="truck88" to="370644951#10" type="truck_truck_E6" />
    <trip depart="66096.00" from="35557707" id="truck89" to="391958207#5" type="truck_truck_E4" />
    <trip depart="67008.00" from="435491726#20" id="truck90" to="430072721#6" type="truck_truck_E6" />
    <trip depart="18941.00" from="35557265#2" id="truck92" to="320898740" type="truck_truck_E4" />
    <trip depart="55559.00" from="24252801#4" id="truck94" to="370644951#7" type="truck_truck_E5" />
    <trip depart="64907.00" from="35557450#3" id="truck95" to="304437030#2" type="truck_truck_E5" />
    <trip depart="29034.00" from="298367761#1" id="truck96" to="75036007#0" type="truck_truck_E5" />
    <trip depart="49088.00" from="410089534#9" id="truck98" to="-75036007#0" type="truck_truck_E1" />
    <trip depart="5868.00" from="75243088#5" id="truck99" to="467318483#0" type="truck_truck_E6" />
    <trip depart="72735.00" from="75037344#1" id="truck100" to="75036007#1" type="truck_truck_E6" />
    <trip depart="9391.00" from="618055289#1" id="truck101" to="24252788#1" type="truck_truck_E6" />
    <trip depart="55510.00" from="39413204#1" id="truck102" to="279864811#1" type="truck_truck_E6" />
    <trip depart="25081.00" from="35557265#1" id="truck103" to="-75036013#2" type="truck_truck_E5" />
    <trip depart="8270.00" from="344149309#0" id="truck104" to="75223322#3" type="truck_truck_E5" />
    <trip depart="84961.00" from="298367768#7" id="truck105" to="442334036#1" type="truck_truck_E5" />
    <trip depart="42244.00" from="412296084" id="truck108" to="435393029#1" type="truck_truck_E4" />
    <trip depart="19691.00" from="151316320#7" id="truck109" to="304549060" type="truck_truck_E5" />
    <trip depart="4020.00" from="75036032" id="truck110" to="412495541#2" type="truck_truck_E5" />
    <trip depart="54688.00" from="410089534#4" id="truck111" to="435707014#3" type="truck_truck_E6" />
    <trip depart="36204.00" from="-75036007#2" id="truck112" to="412495542#0" type="truck_truck_E5" />
    <trip depart="38524.00" from="401506730#6" id="truck113" to="618055289#3" type="truck_truck_E4" />
    <trip depart="79171.00" from="172098498#2" id="truck114" to="75036027#1" type="truck_truck_E6" />
    <trip depart="30070.00" from="111948492" id="truck115" to="279043423#0" type="truck_truck_E6" />
    <trip depart="32710.00" from="413976459#3" id="truck116" to="430072721#7" type="truck_truck_E5" />
    <trip depart="8305.00" from="284929209#2" id="truck117" to="129897452" type="truck_truck_E5" />
    <trip depart="53935.00" from="413976459#3" id="truck119" to="428030875#5" type="truck_truck_E5" />
    <trip depart="47828.00" from="35557450#2" id="truck120" to="412495542#0" type="truck_truck_E5" />
    <trip depart="80962.00" from="406644984#1" id="truck121" to="75036010#1" type="truck_truck_E5" />
    <trip depart="7940.00" from="279864770#1" id="truck122" to="435393028#1" type="truck_truck_E5" />
    <trip depart="54938.00" from="28707264#1" id="truck123" to="35557265#2" type="truck_truck_E5" />
    <trip depart="34146.00" from="430072721#7" id="truck124" to="315199154#0" type="truck_truck_E3" />
    <trip depart="66078.00" from="319662804#3" id="truck125" to="435707014#5" type="truck_truck_E6" />
    <trip depart="7977.00" from="111924331#1" id="truck126" to="391958207#1" type="truck_truck_E5" />
    <trip depart="29360.00" from="111924331#1" id="truck128" to="279864811#1" type="truck_truck_E5" />
    <trip depart="83775.00" from="298367768#7" id="truck129" to="75036010#1" type="truck_truck_E5" />
    <trip depart="83252.00" from="618118686#2" id="truck130" to="618118685#1" type="truck_truck_E5" />
    <trip depart="80463.00" from="336833691#0" id="truck131" to="172244021#2" type="truck_truck_E3" />
    <trip depart="70045.00" from="467318483#0" id="truck132" to="430410163#2" type="truck_truck_E6" />
    <trip depart="79293.00" from="428030875#3" id="truck133" to="75223332" type="truck_truck_E6" />
    <trip depart="80097.00" from="430072204#2" id="truck134" to="-172242987#0" type="truck_truck_E4" />
    <trip depart="64722.00" from="44364644#2" id="truck135" to="315199154#0" type="truck_truck_E5" />
    <trip depart="64239.00" from="430072721#4" id="truck136" to="75036013#0" type="truck_truck_E6" />
    <trip depart="72136.00" from="144953677#0" id="truck137" to="129897442#5" type="truck_truck_E3" />
    <trip depart="22240.00" from="129897427" id="truck138" to="412296083#1" type="truck_truck_E5" />
    <trip depart="26835.00" from="298431255#3" id="truck139" to="428030874#0" type="truck_truck_E6" />
    <trip depart="50389.00" from="435393029#2" id="truck140" to="279864770#4" type="truck_truck_E6" />
    <trip depart="30121.00" from="428046226#3" id="truck141" to="298431255#3" type="truck_truck_E5" />
    <trip depart="65614.00" from="401506730#0" id="truck142" to="619019400#8" type="truck_truck_E4" />
    <trip depart="30724.00" from="563946130" id="truck143" to="120863177#2" type="truck_truck_E2" />
    <trip depart="21190.00" from="35557707" id="truck144" to="304437030#1" type="truck_truck_E5" />
    <trip depart="38215.00" from="-111924331#1" id="truck145" to="442309013#4" type="truck_truck_E4" />
    <trip depart="25857.00" from="428046226#4" id="truck146" to="298431255#2" type="truck_truck_E5" />
    <trip depart="16289.00" from="435707014#1" id="truck147" to="410089534#9" type="truck_truck_E5" />
    <trip depart="14565.00" from="355607761#0" id="truck148" to="-264858336" type="truck_truck_E6" />
    <trip depart="31821.00" from="111925884#0" id="truck149" to="618315978#1" type="truck_truck_E4" />
    <trip depart="45729.00" from="619019400#7" id="truck150" to="410089534#7" type="truck_truck_E5" />
    <trip depart="6534.00" from="467318483#0" id="truck151" to="412495541#3" type="truck_truck_E5" />
    <trip depart="10348.00" from="151316320#3" id="truck152" to="144953677#1" type="truck_truck_E4" />
    <trip depart="75579.00" from="319515359#3" id="truck153" to="619019400#6" type="truck_truck_E5" />
    <trip depart="18802.00" from="442867200#1" id="truck154" to="618055291#2" type="truck_truck_E6" />
    <trip depart="24198.00" from="619019400#5" id="truck155" to="279864811#0" type="truck_truck_E5" />
    <trip depart="62934.00" from="298367761#1" id="truck156" to="129897427" type="truck_truck_E5" />
    <trip depart="556.00" from="442334036#1" id="truck157" to="618315978#1" type="truck_truck_E5" />
    <trip depart="19471.00" from="35557265#3" id="truck158" to="428030875#5" type="truck_truck_E6" />
    <trip depart="8151.00" from="151316320#7" id="truck159" to="75036007#2" type="truck_truck_E3" />
    <trip depart="46304.00" from="618055291#3" id="truck160" to="75223322#0" type="truck_truck_E5" />
    <trip depart="47239.00" from="44364379#4" id="truck161" to="618118686#2" type="truck_truck_E3" />
    <trip depart="70510.00" from="-437506344" id="truck162" to="435491726#21" type="truck_truck_E6" />
    <trip depart="45581.00" from="319788732#2" id="truck163" to="75036010#0" type="truck_truck_E6" />
    <trip depart="34141.00" from="442867200#8" id="truck164" to="618055291#3" type="truck_truck_E5" />
    <trip depart="44998.00" from="44364379#4" id="truck165" to="298431255#4" type="truck_truck_E5" />
    <trip depart="4710.00" from="442451694" id="truck166" to="129897442#2" type="truck_truck_E6" />
    <trip depart="65093.00" from="618055292#1" id="truck167" to="618055291#1" type="truck_truck_E5" />
    <trip depart="8415.00" from="279864813#0" id="truck168" to="44364644#1" type="truck_truck_E5" />
    <trip depart="75574.00" from="391958207#0" id="truck169" to="319515359#3" type="truck_truck_E4" />
    <trip depart="43019.00" from="442867200#1" id="truck170" to="284929209#2" type="truck_truck_E4" />
    <trip depart="19810.00" from="-428073531#1" id="truck171" to="279864770#0" type="truck_truck_E6" />
    <trip depart="60336.00" from="319788732#1" id="truck172" to="618055291#3" type="truck_truck_E5" />
    <trip depart="6360.00" from="75036032" id="truck173" to="304437030#2" type="truck_truck_E6" />
    <trip depart="24915.00" from="428073529" id="truck174" to="35557265#3" type="truck_truck_E4" />
    <trip depart="12497.00" from="75223322#3" id="truck175" to="410089534#0" type="truck_truck_E6" />
    <trip depart="73710.00" from="75036013#1" id="truck176" to="129897442#5" type="truck_truck_E6" />
    <trip depart="52241.00" from="75037344#1" id="truck177" to="24252801#5" type="truck_truck_E5" />
    <trip depart="18542.00" from="75036027#3" id="truck178" to="298431255#4" type="truck_truck_E1" />
    <trip depart="57790.00" from="129897442#0" id="truck179" to="370644951#12" type="truck_truck_E6" />
    <trip depart="35379.00" from="435491726#20" id="truck180" to="319662804#5" type="truck_truck_E6" />
    <trip depart="73399.00" from="428030875#1" id="truck181" to="406644981#1" type="truck_truck_E5" />
    <trip depart="40544.00" from="35557263#1" id="truck182" to="412495541#1" type="truck_truck_E5" />
    <trip depart="70200.00" from="298367761#3" id="truck183" to="430410163#6" type="truck_truck_E5" />
    <trip depart="86012.00" from="-111924331#0" id="truck184" to="75036007#1" type="truck_truck_E5" />
    <trip depart="26256.00" from="410089534#3" id="truck185" to="435393029#1" type="truck_truck_E6" />
    <trip depart="85256.00" from="435707014#3" id="truck186" to="430072721#5" type="truck_truck_E5" />
    <trip depart="72515.00" from="331470728#8" id="truck187" to="111924331#1" type="truck_truck_E5" />
    <trip depart="46498.00" from="430072721#4" id="truck188" to="320884186" type="truck_truck_E6" />
    <trip depart="70291.00" from="319662804#2" id="truck189" to="618055289#1" type="truck_truck_E5" />
    <trip depart="28263.00" from="435491726#1" id="truck190" to="315199154#0" type="truck_truck_E5" />
    <trip depart="12779.00" from="319662804#0" id="truck191" to="35557442#1" type="truck_truck_E5" />
    <trip depart="44938.00" from="35557265#2" id="truck192" to="304442660#2" type="truck_truck_E4" />
    <trip depart="28021.00" from="129897452" id="truck193" to="35557450#3" type="truck_truck_E5" />
    <trip depart="36800.00" from="75036013#2" id="truck194" to="430072721#8" type="truck_truck_E6" />
    <trip depart="13544.00" from="619019400#7" id="truck195" to="428030875#3" type="truck_truck_E5" />
    <trip depart="29912.00" from="304442660#2" id="truck196" to="410089534#8" type="truck_truck_E5" />
    <trip depart="69184.00" from="-111924331#0" id="truck197" to="304437031" type="truck_truck_E4" />
    <trip depart="26474.00" from="355607761#2" id="truck198" to="412495541#2" type="truck_truck_E5" />
    <trip depart="33574.00" from="430072204#2" id="truck199" to="391958207#3" type="truck_truck_E4" />
    <trip depart="3310.00" from="391958207#6" id="truck201" to="619019400#6" type="truck_truck_E6" />
    <trip depart="36666.00" from="428046226#2" id="truck204" to="320898734#1" type="truck_truck_E6" />
    <trip depart="63224.00" from="44364644#3" id="truck205" to="435707014#4" type="truck_truck_E6" />
    <trip depart="56405.00" from="430072721#8" id="truck206" to="284929209#1" type="truck_truck_E2" />
    <trip depart="80747.00" from="279043423#1" id="truck207" to="-437506344" type="truck_truck_E5" />
    <trip depart="2720.00" from="28798001#0" id="truck208" to="391958207#9" type="truck_truck_E5" />
    <trip depart="71975.00" from="618055289#2" id="truck209" to="111925884#0" type="truck_truck_E5" />
    <trip depart="62264.00" from="35557447#0" id="truck210" to="428035708" type="truck_truck_E6" />
    <trip depart="81662.00" from="264858336" id="truck211" to="430077169#6" type="truck_truck_E5" />
    <trip depart="55186.00" from="430072204#3" id="truck213" to="-129897427" type="truck_truck_E4" />
    <trip depart="9803.00" from="442309012#0" id="truck214" to="442309013#3" type="truck_truck_E5" />
    <trip depart="64914.00" from="129897427" id="truck215" to="355607761#2" type="truck_truck_E2" />
    <trip depart="84126.00" from="24252788#0" id="truck216" to="75036027#0" type="truck_truck_E6" />
    <trip depart="29338.00" from="406644982#1" id="truck217" to="-75036007#0" type="truck_truck_E3" />
    <trip depart="70719.00" from="298367761#1" id="truck218" to="618055289#2" type="truck_truck_E6" />
    <trip depart="26436.00" from="370644951#9" id="truck219" to="442867200#2" type="truck_truck_E5" />
    <trip depart="26214.00" from="430072721#6" id="truck220" to="75223332" type="truck_truck_E5" />
    <trip depart="56219.00" from="413976459#3" id="truck221" to="75036017" type="truck_truck_E2" />
    <trip depart="16601.00" from="619019400#2" id="truck222" to="428030875#2" type="truck_truck_E2" />
    <trip depart="67177.00" from="435491726#1" id="truck223" to="401506730#7" type="truck_truck_E6" />
    <trip depart="74498.00" from="44364645#7" id="truck224" to="410089534#8" type="truck_truck_E6" />
    <trip depart="68396.00" from="619019400#5" id="truck225" to="435491726#9" type="truck_truck_E6" />
    <trip depart="9793.00" from="391958207#7" id="truck226" to="298431255#1" type="truck_truck_E4" />
    <trip depart="64193.00" from="298367761#0" id="truck227" to="428046226#2" type="truck_truck_E5" />
    <trip depart="34859.00" from="442309013#4" id="truck228" to="406644984#1" type="truck_truck_E5" />
    <trip depart="75768.00" from="428035708" id="truck229" to="304437030#0" type="truck_truck_E6" />
    <trip depart="64968.00" from="111925884#1" id="truck230" to="304437030#5" type="truck_truck_E5" />
    <trip depart="57454.00" from="298431255#3" id="truck231" to="319662804#7" type="truck_truck_E5" />
    <trip depart="54027.00" from="410089534#3" id="truck232" to="151316320#3" type="truck_truck_E4" />
    <trip depart="30714.00" from="284929209#0" id="truck233" to="430077169#5" type="truck_truck_E6" />
    <trip depart="21938.00" from="435343301#1" id="truck234" to="-75036014#1" type="truck_truck_E4" />
    <trip depart="77129.00" from="35557265#4" id="truck235" to="410089534#6" type="truck_truck_E4" />
    <trip depart="42555.00" from="35557447#0" id="truck236" to="279864770#5" type="truck_truck_E6" />
    <trip depart="11371.00" from="35557450#2" id="truck237" to="619019400#8" type="truck_truck_E5" />
    <trip depart="53357.00" from="412495543#0" id="truck238" to="430077169#6" type="truck_truck_E3" />
    <trip depart="47072.00" from="618055291#0" id="truck239" to="442309013#1" type="truck_truck_E6" />
    <trip depart="17747.00" from="344149309#0" id="truck240" to="-129897427" type="truck_truck_E4" />
    <trip depart="40187.00" from="331470728#1" id="truck241" to="435707014#5" type="truck_truck_E6" />
    <trip depart="77289.00" from="618055289#3" id="truck242" to="75036020" type="truck_truck_E6" />
    <trip depart="85846.00" from="35557450#2" id="truck243" to="435707014#3" type="truck_truck_E2" />
    <trip depart="33857.00" from="410089534#7" id="truck244" to="413976463#2" type="truck_truck_E2" />
    <trip depart="15883.00" from="279864813#0" id="truck245" to="284929204#2" type="truck_truck_E5" />
    <trip depart="1818.00" from="370644951#10" id="truck246" to="-442309012#1" type="truck_truck_E5" />
    <trip depart="49869.00" from="320898734#0" id="truck247" to="430072721#8" type="truck_truck_E6" />
    <trip depart="57954.00" from="35557265#3" id="truck248" to="24252788#0" type="truck_truck_E6" />
    <trip depart="15697.00" from="391958207#3" id="truck249" to="144953677#1" type="truck_truck_E5" />
    <trip depart="70808.00" from="428032853#2" id="truck250" to="-442309012#0" type="truck_truck_E6" />
    <trip depart="55327.00" from="35557264#0" id="truck251" to="412296576#1" type="truck_truck_E6" />
    <trip depart="16450.00" from="-442309012#0" id="truck252" to="428046226#4" type="truck_truck_E4" />
    <trip depart="40814.00" from="144953677#0" id="truck253" to="391958207#2" type="truck_truck_E3" />
    <trip depart="61457.00" from="279864770#4" id="truck255" to="319788732#2" type="truck_truck_E6" />
    <trip depart="60421.00" from="442309012#1" id="truck257" to="44364645#7" type="truck_truck_E5" />
    <trip depart="40591.00" from="298367761#2" id="truck258" to="118291788#0" type="truck_truck_E3" />
    <trip depart="33040.00" from="-428073531#0" id="truck259" to="410089534#3" type="truck_truck_E5" />
    <trip depart="72240.00" from="75243088#5" id="truck260" to="331470728#11" type="truck_truck_E5" />
    <trip depart="4127.00" from="430072204#0" id="truck261" to="442334036#0" type="truck_truck_E4" />
    <trip depart="36290.00" from="430072204#1" id="truck262" to="442309012#0" type="truck_truck_E5" />
    <trip depart="52129.00" from="75036017" id="truck263" to="279864770#2" type="truck_truck_E6" />
    <trip depart="69046.00" from="-428073531#0" id="truck264" to="172243635" type="truck_truck_E5" />
    <trip depart="77801.00" from="129897450" id="truck265" to="430072721#4" type="truck_truck_E5" />
    <trip depart="43666.00" from="412296576#1" id="truck266" to="284929204#1" type="truck_truck_E5" />
    <trip depart="33188.00" from="430410163#3" id="truck267" to="442309013#2" type="truck_truck_E5" />
    <trip depart="35341.00" from="172244021#2" id="truck268" to="428030874#1" type="truck_truck_E6" />
    <trip depart="58354.00" from="435707014#5" id="truck269" to="129897442#5" type="truck_truck_E6" />
    <trip depart="6408.00" from="44364644#3" id="truck270" to="75036027#3" type="truck_truck_E4" />
    <trip depart="7007.00" from="129897442#0" id="truck271" to="-437506344" type="truck_truck_E6" />
    <trip depart="69597.00" from="319662804#1" id="truck272" to="430072721#8" type="truck_truck_E5" />
    <trip depart="39582.00" from="75036027#1" id="truck273" to="35557265#2" type="truck_truck_E6" />
    <trip depart="18086.00" from="435393029#1" id="truck274" to="111925884#1" type="truck_truck_E5" />
    <trip depart="26561.00" from="430077169#6" id="truck275" to="428032853#2" type="truck_truck_E6" />
    <trip depart="34473.00" from="126587263#2" id="truck276" to="442309013#4" type="truck_truck_E5" />
    <trip depart="7607.00" from="618055289#2" id="truck277" to="413976463#0" type="truck_truck_E4" />
    <trip depart="2501.00" from="129897442#5" id="truck278" to="75223322#3" type="truck_truck_E5" />
    <trip depart="46975.00" from="442451678#0" id="truck279" to="331470728#1" type="truck_truck_E5" />
    <trip depart="53663.00" from="355607761#2" id="truck280" to="336833695#0" type="truck_truck_E3" />
    <trip depart="29521.00" from="401506730#7" id="truck281" to="320898743#1" type="truck_truck_E5" />
    <trip depart="30873.00" from="618055289#2" id="truck282" to="44364645#0" type="truck_truck_E5" />
    <trip depart="7409.00" from="129897427" id="truck283" to="75036027#1" type="truck_truck_E4" />
    <trip depart="76163.00" from="428046226#3" id="truck284" to="44364645#3" type="truck_truck_E5" />
    <trip depart="35819.00" from="435343301#1" id="truck285" to="370644951#12" type="truck_truck_E5" />
    <trip depart="2055.00" from="435491726#22" id="truck286" to="75036027#3" type="truck_truck_E4" />
    <trip depart="5462.00" from="298431255#2" id="truck287" to="44364379#2" type="truck_truck_E4" />
    <trip depart="9633.00" from="410089534#0" id="truck288" to="39413204#2" type="truck_truck_E5" />
    <trip depart="10883.00" from="370644951#10" id="truck289" to="435491726#18" type="truck_truck_E5" />
    <trip depart="60684.00" from="298431255#2" id="truck290" to="618055289#3" type="truck_truck_E5" />
    <trip depart="59641.00" from="44364645#7" id="truck291" to="118291788#2" type="truck_truck_E5" />
    <trip depart="4884.00" from="344149309#0" id="truck294" to="-442309012#0" type="truck_truck_E1" />
    <trip depart="59249.00" from="618055289#2" id="truck295" to="24252801#6" type="truck_truck_E5" />
    <trip depart="38453.00" from="279864770#4" id="truck296" to="442867200#1" type="truck_truck_E6" />
    <trip depart="9877.00" from="320898740" id="truck297" to="618118686#2" type="truck_truck_E5" />
    <trip depart="52365.00" from="430410163#5" id="truck298" to="304437030#1" type="truck_truck_E6" />
    <trip depart="79870.00" from="-264858336" id="truck299" to="75036014#1" type="truck_truck_E4" />
    <trip depart="23444.00" from="401506730#0" id="truck301" to="442309012#1" type="truck_truck_E5" />
    <trip depart="66809.00" from="430077169#6" id="truck302" to="428073529" type="truck_truck_E6" />
    <trip depart="42570.00" from="401506730#1" id="truck303" to="442469223#1" type="truck_truck_E6" />
    <trip depart="674.00" from="120863177#1" id="truck304" to="284929204#2" type="truck_truck_E5" />
    <trip depart="5374.00" from="412495542#1" id="truck306" to="391958207#8" type="truck_truck_E4" />
    <trip depart="76081.00" from="410089531#1" id="truck307" to="355607761#2" type="truck_truck_E2" />
    <trip depart="54743.00" from="435707014#4" id="truck308" to="320884186" type="truck_truck_E4" />
    <trip depart="39622.00" from="430410163#5" id="truck309" to="299781216" type="truck_truck_E5" />
    <trip depart="79937.00" from="298367761#2" id="truck310" to="129897454#1" type="truck_truck_E5" />