<?xml version="1.0" encoding="UTF-8"?>

<!-- generated on Tue Jul 30 14:27:37 2019 by Eclipse SUMO netconvert Version v1_2_0+0622-cbc8645
<configuration xmlns:xsi="http://www.w3.org/2001/XMLSchema-instance" xsi:noNamespaceSchemaLocation="http://sumo.dlr.de/xsd/netconvertConfiguration.xsd">

    <input>
        <type-files value="/usr/bin/sumo/data/typemap/osmNetconvert.typ.xml"/>
        <osm-files value="osm_bbox.osm.xml"/>
    </input>

    <output>
        <output-file value="osm.net.xml"/>
        <output.street-names value="true"/>
        <output.original-names value="true"/>
    </output>

    <projection>
        <proj.utm value="true"/>
    </projection>

    <processing>
        <geometry.remove value="true"/>
        <roundabouts.guess value="true"/>
    </processing>

    <tls_building>
        <tls.discard-simple value="true"/>
        <tls.join value="true"/>
        <tls.guess-signals value="true"/>
        <tls.default-type value="actuated"/>
    </tls_building>

    <ramp_guessing>
        <ramps.guess value="true"/>
    </ramp_guessing>

    <junctions>
        <junctions.join value="true"/>
        <junctions.corner-detail value="5"/>
    </junctions>

    <report>
        <verbose value="true"/>
    </report>

</configuration>
-->

<net version="1.3" junctionCornerDetail="5" limitTurnSpeed="5.50" xmlns:xsi="http://www.w3.org/2001/XMLSchema-instance" xsi:noNamespaceSchemaLocation="http://sumo.dlr.de/xsd/net_file.xsd">

    <location netOffset="-278339.83,1334228.30" convBoundary="0.00,0.00,2416.37,2101.21" origBoundary="-77.036153,-12.062068,-77.014022,-12.043056" projParameter="+proj=utm +zone=18 +ellps=WGS84 +datum=WGS84 +units=m +no_defs"/>

    <type id="highway.bridleway" priority="1" numLanes="1" speed="2.78" allow="pedestrian" oneway="1" width="2.00"/>
    <type id="highway.bus_guideway" priority="1" numLanes="1" speed="27.78" allow="bus" oneway="1"/>
    <type id="highway.cycleway" priority="1" numLanes="1" speed="8.33" allow="bicycle" oneway="0" width="1.00"/>
    <type id="highway.footway" priority="1" numLanes="1" speed="2.78" allow="pedestrian" oneway="1" width="2.00"/>
    <type id="highway.ford" priority="1" numLanes="1" speed="2.78" allow="army" oneway="0"/>
    <type id="highway.living_street" priority="2" numLanes="1" speed="2.78" disallow="tram rail_urban rail rail_electric rail_fast ship" oneway="0"/>
    <type id="highway.motorway" priority="14" numLanes="2" speed="39.44" allow="private emergency authority army vip passenger hov taxi bus coach delivery truck trailer motorcycle evehicle custom1 custom2" oneway="1"/>
    <type id="highway.motorway_link" priority="9" numLanes="1" speed="22.22" allow="private emergency authority army vip passenger hov taxi bus coach delivery truck trailer motorcycle evehicle custom1 custom2" oneway="1"/>
    <type id="highway.path" priority="1" numLanes="1" speed="2.78" allow="pedestrian bicycle" oneway="1" width="2.00"/>
    <type id="highway.pedestrian" priority="1" numLanes="1" speed="2.78" allow="pedestrian" oneway="1" width="2.00"/>
    <type id="highway.primary" priority="12" numLanes="2" speed="27.78" disallow="tram rail_urban rail rail_electric rail_fast ship" oneway="0"/>
    <type id="highway.primary_link" priority="7" numLanes="1" speed="22.22" disallow="tram rail_urban rail rail_electric rail_fast ship" oneway="0"/>
    <type id="highway.raceway" priority="15" numLanes="2" speed="83.33" allow="vip" oneway="0"/>
    <type id="highway.residential" priority="3" numLanes="1" speed="13.89" disallow="tram rail_urban rail rail_electric rail_fast ship" oneway="0"/>
    <type id="highway.secondary" priority="11" numLanes="2" speed="27.78" disallow="tram rail_urban rail rail_electric rail_fast ship" oneway="0"/>
    <type id="highway.secondary_link" priority="6" numLanes="1" speed="22.22" disallow="tram rail_urban rail rail_electric rail_fast ship" oneway="0"/>
    <type id="highway.service" priority="1" numLanes="1" speed="5.56" allow="pedestrian delivery bicycle" oneway="0"/>
    <type id="highway.stairs" priority="1" numLanes="1" speed="1.39" allow="pedestrian" oneway="1" width="2.00"/>
    <type id="highway.step" priority="1" numLanes="1" speed="1.39" allow="pedestrian" oneway="1" width="2.00"/>
    <type id="highway.steps" priority="1" numLanes="1" speed="1.39" allow="pedestrian" oneway="1" width="2.00"/>
    <type id="highway.tertiary" priority="10" numLanes="1" speed="22.22" disallow="tram rail_urban rail rail_electric rail_fast ship" oneway="0"/>
    <type id="highway.tertiary_link" priority="5" numLanes="1" speed="22.22" disallow="tram rail_urban rail rail_electric rail_fast ship" oneway="0"/>
    <type id="highway.track" priority="1" numLanes="1" speed="5.56" disallow="tram rail_urban rail rail_electric rail_fast ship" oneway="0"/>
    <type id="highway.trunk" priority="13" numLanes="2" speed="27.78" disallow="pedestrian bicycle tram rail_urban rail rail_electric rail_fast ship" oneway="0"/>
    <type id="highway.trunk_link" priority="8" numLanes="1" speed="22.22" disallow="pedestrian bicycle tram rail_urban rail rail_electric rail_fast ship" oneway="0"/>
    <type id="highway.unclassified" priority="4" numLanes="1" speed="13.89" disallow="tram rail_urban rail rail_electric rail_fast ship" oneway="0"/>
    <type id="highway.unsurfaced" priority="1" numLanes="1" speed="8.33" disallow="tram rail_urban rail rail_electric rail_fast ship" oneway="0"/>
    <type id="railway.highspeed" priority="21" numLanes="1" speed="69.44" allow="rail_fast" oneway="1"/>
    <type id="railway.light_rail" priority="19" numLanes="1" speed="27.78" allow="rail_urban" oneway="1"/>
    <type id="railway.preserved" priority="16" numLanes="1" speed="27.78" allow="rail" oneway="1"/>
    <type id="railway.rail" priority="20" numLanes="1" speed="44.44" allow="rail" oneway="1"/>
    <type id="railway.subway" priority="18" numLanes="1" speed="27.78" allow="rail_urban" oneway="1"/>
    <type id="railway.tram" priority="17" numLanes="1" speed="13.89" allow="tram" oneway="1"/>

    <edge id=":1273615895_0" function="internal">
        <lane id=":1273615895_0_0" index="0" disallow="tram rail_urban rail rail_electric rail_fast ship" speed="8.33" length="9.48" shape="1151.65,662.92 1151.63,653.44"/>
        <lane id=":1273615895_0_1" index="1" disallow="tram rail_urban rail rail_electric rail_fast ship" speed="8.33" length="9.48" shape="1154.85,662.91 1154.83,653.44"/>
    </edge>
    <edge id=":1273615895_2" function="internal">
        <lane id=":1273615895_2_0" index="0" disallow="tram rail_urban rail rail_electric rail_fast ship" speed="5.95" length="8.19" shape="1154.85,662.91 1155.08,660.06 1155.78,658.11 1156.96,657.04 1158.61,656.86"/>
    </edge>
    <edge id=":1273615895_3" function="internal">
        <lane id=":1273615895_3_0" index="0" disallow="tram rail_urban rail rail_electric rail_fast ship" speed="6.51" length="8.04" shape="1158.16,660.03 1156.71,659.44 1155.67,658.15 1155.04,656.15 1154.83,653.44"/>
    </edge>
    <edge id=":1273615895_4" function="internal">
        <lane id=":1273615895_4_0" index="0" disallow="tram rail_urban rail rail_electric rail_fast ship" speed="3.65" length="4.67" shape="1158.16,660.03 1157.09,659.07 1156.80,658.22 1157.31,657.49 1158.61,656.86"/>
    </edge>
    <edge id=":1273644039_0" function="internal">
        <lane id=":1273644039_0_0" index="0" disallow="tram rail_urban rail rail_electric rail_fast ship" speed="5.51" length="9.54" shape="1162.34,478.44 1162.30,481.44 1163.17,482.99 1164.94,483.10 1167.62,481.77"/>
    </edge>
    <edge id=":1273644039_1" function="internal">
        <lane id=":1273644039_1_0" index="0" disallow="tram rail_urban rail rail_electric rail_fast ship" speed="3.65" length="4.67" shape="1162.34,478.44 1161.39,479.53 1160.54,479.82 1159.80,479.32 1159.16,478.03"/>
    </edge>
    <edge id=":1273644039_2" function="internal">
        <lane id=":1273644039_2_0" index="0" disallow="tram rail_urban rail rail_electric rail_fast ship" speed="12.12" length="14.36" shape="1153.84,491.01 1155.67,489.12 1157.17,486.33 1158.33,482.63 1159.16,478.03"/>
    </edge>
    <edge id=":1273644039_3" function="internal">
        <lane id=":1273644039_3_0" index="0" disallow="tram rail_urban rail rail_electric rail_fast ship" speed="13.89" length="16.46" shape="1153.84,491.01 1167.62,481.77"/>
        <lane id=":1273644039_3_1" index="1" disallow="tram rail_urban rail rail_electric rail_fast ship" speed="13.89" length="16.46" shape="1155.71,493.61 1169.37,484.44"/>
        <lane id=":1273644039_3_2" index="2" disallow="tram rail_urban rail rail_electric rail_fast ship" speed="13.89" length="16.46" shape="1157.58,496.21 1171.13,487.12"/>
    </edge>
    <edge id=":1273669001_0" function="internal">
        <lane id=":1273669001_0_0" index="0" disallow="tram rail_urban rail rail_electric rail_fast ship" speed="6.41" length="9.04" shape="394.38,1088.16 392.54,1089.85 391.71,1091.70 391.90,1093.71 393.10,1095.90"/>
    </edge>
    <edge id=":1273669001_1" function="internal">
        <lane id=":1273669001_1_0" index="0" disallow="tram rail_urban rail rail_electric rail_fast ship" speed="3.65" length="4.67" shape="394.38,1088.16 392.93,1088.18 392.15,1087.74 392.03,1086.86 392.57,1085.52"/>
    </edge>
    <edge id=":1273669001_2" function="internal">
        <lane id=":1273669001_2_0" index="0" disallow="tram rail_urban rail rail_electric rail_fast ship" speed="6.54" length="9.15" shape="384.67,1084.14 386.34,1085.96 388.22,1086.80 390.30,1086.65 392.57,1085.52"/>
    </edge>
    <edge id=":1273669001_3" function="internal">
        <lane id=":1273669001_3_0" index="0" disallow="tram rail_urban rail rail_electric rail_fast ship" speed="8.33" length="14.55" shape="384.67,1084.14 393.10,1095.90"/>
        <lane id=":1273669001_3_1" index="1" disallow="tram rail_urban rail rail_electric rail_fast ship" speed="8.33" length="14.55" shape="382.02,1085.94 390.55,1097.82"/>
    </edge>
    <edge id=":1273704006_0" function="internal">
        <lane id=":1273704006_0_0" index="0" disallow="tram rail_urban rail rail_electric rail_fast ship" speed="8.33" length="12.92" shape="443.67,514.48 437.53,503.11"/>
    </edge>
    <edge id=":1273704006_1" function="internal">
        <lane id=":1273704006_1_0" index="0" disallow="tram rail_urban rail rail_electric rail_fast ship" speed="5.77" length="9.16" shape="443.67,514.48 442.70,511.96 442.94,510.09 444.38,508.89 447.03,508.34"/>
    </edge>
    <edge id=":1273704006_2" function="internal">
        <lane id=":1273704006_2_0" index="0" disallow="tram rail_urban rail rail_electric rail_fast ship" speed="5.82" length="9.14" shape="434.15,509.34 436.75,508.74 438.18,507.50 438.44,505.62 437.53,503.11"/>
    </edge>
    <edge id=":1273704006_3" function="internal">
        <lane id=":1273704006_3_0" index="0" disallow="tram rail_urban rail rail_electric rail_fast ship" speed="11.11" length="12.92" shape="434.15,509.34 447.03,508.34"/>
    </edge>
    <edge id=":1273732444_0" function="internal">
        <lane id=":1273732444_0_0" index="0" disallow="tram rail_urban rail rail_electric rail_fast ship" speed="8.33" length="5.01" shape="1349.34,374.11 1349.66,369.11"/>
    </edge>
    <edge id=":1273800333_0" function="internal">
        <lane id=":1273800333_0_0" index="0" disallow="tram rail_urban rail rail_electric rail_fast ship" speed="5.02" length="5.02" shape="1557.34,782.69 1556.02,783.09 1555.16,783.82 1554.74,784.87 1554.78,786.25"/>
    </edge>
    <edge id=":1273800333_1" function="internal">
        <lane id=":1273800333_1_0" index="0" allow="pedestrian delivery bicycle" speed="3.65" length="4.67" shape="1557.34,782.69 1556.04,782.08 1555.52,781.35 1555.79,780.50 1556.86,779.53"/>
    </edge>
    <edge id=":1273800333_2" function="internal">
        <lane id=":1273800333_2_0" index="0" allow="pedestrian delivery bicycle" speed="5.17" length="5.11" shape="1553.06,777.05 1553.53,778.32 1554.31,779.15 1555.42,779.56 1556.86,779.53"/>
    </edge>
    <edge id=":1273800333_3" function="internal">
        <lane id=":1273800333_3_0" index="0" disallow="tram rail_urban rail rail_electric rail_fast ship" speed="11.11" length="9.35" shape="1553.06,777.05 1554.78,786.25"/>
    </edge>
    <edge id=":1273822968_0" function="internal">
        <lane id=":1273822968_0_0" index="0" disallow="tram rail_urban rail rail_electric rail_fast ship" speed="6.19" length="6.26" shape="1688.20,759.32 1690.16,758.85 1691.61,758.14 1692.56,757.18 1693.00,755.97"/>
    </edge>
    <edge id=":1273822968_1" function="internal">
        <lane id=":1273822968_1_0" index="0" allow="pedestrian delivery bicycle" speed="3.65" length="4.67" shape="1688.20,759.32 1689.51,759.92 1690.02,760.65 1689.75,761.51 1688.69,762.48"/>
    </edge>
    <edge id=":1273822968_2" function="internal">
        <lane id=":1273822968_2_0" index="0" allow="pedestrian delivery bicycle" speed="4.81" length="5.34" shape="1691.85,765.49 1691.79,763.97 1691.24,762.96 1690.21,762.46 1688.69,762.48"/>
    </edge>
    <edge id=":1273822968_3" function="internal">
        <lane id=":1273822968_3_0" index="0" disallow="tram rail_urban rail rail_electric rail_fast ship" speed="8.33" length="9.58" shape="1691.85,765.49 1693.00,755.97"/>
    </edge>
    <edge id=":1273827461_0" function="internal">
        <lane id=":1273827461_0_0" index="0" disallow="tram rail_urban rail rail_electric rail_fast ship" speed="8.33" length="5.00" shape="1255.19,355.77 1254.43,360.71"/>
    </edge>
    <edge id=":1273827461_1" function="internal">
        <lane id=":1273827461_1_0" index="0" disallow="tram rail_urban rail rail_electric rail_fast ship" speed="3.65" length="4.67" shape="1255.19,355.77 1254.22,356.83 1253.37,357.11 1252.64,356.59 1252.03,355.28"/>
    </edge>
    <edge id=":1273827461_2" function="internal">
        <lane id=":1273827461_2_0" index="0" disallow="tram rail_urban rail rail_electric rail_fast ship" speed="8.33" length="5.00" shape="1251.27,360.22 1252.03,355.28"/>
    </edge>
    <edge id=":1273827461_3" function="internal">
        <lane id=":1273827461_3_0" index="0" disallow="tram rail_urban rail rail_electric rail_fast ship" speed="3.65" length="4.67" shape="1251.27,360.22 1252.24,359.16 1253.09,358.88 1253.82,359.40 1254.43,360.71"/>
    </edge>
    <edge id=":1273852858_0" function="internal">
        <lane id=":1273852858_0_0" index="0" disallow="tram rail_urban rail rail_electric rail_fast ship" speed="8.32" length="11.12" shape="1358.88,693.47 1357.92,691.23 1356.18,689.48 1353.66,688.22 1350.36,687.45"/>
    </edge>
    <edge id=":1273852858_1" function="internal">
        <lane id=":1273852858_1_0" index="0" disallow="tram rail_urban rail rail_electric rail_fast ship" speed="11.11" length="14.78" shape="1358.88,693.47 1355.76,679.02"/>
    </edge>
    <edge id=":1273852858_2" function="internal">
        <lane id=":1273852858_2_0" index="0" disallow="tram rail_urban rail rail_electric rail_fast ship" speed="5.89" length="9.11" shape="1350.81,684.28 1353.45,684.28 1355.15,683.41 1355.92,681.65 1355.76,679.02"/>
    </edge>
    <edge id=":1273852858_3" function="internal">
        <lane id=":1273852858_3_0" index="0" disallow="tram rail_urban rail rail_electric rail_fast ship" speed="3.65" length="4.67" shape="1350.81,684.28 1351.88,685.24 1352.17,686.09 1351.66,686.82 1350.36,687.45"/>
    </edge>
    <edge id=":1273955905_0" function="internal">
        <lane id=":1273955905_0_0" index="0" disallow="tram rail_urban rail rail_electric rail_fast ship" speed="9.72" length="14.26" shape="596.87,791.66 585.07,799.51"/>
        <lane id=":1273955905_0_1" index="1" disallow="tram rail_urban rail rail_electric rail_fast ship" speed="9.72" length="14.26" shape="595.16,788.95 583.22,796.89"/>
    </edge>
    <edge id=":1273955905_2" function="internal">
        <lane id=":1273955905_2_0" index="0" disallow="tram rail_urban rail rail_electric rail_fast ship" speed="7.19" length="11.85" shape="595.16,788.95 591.68,790.70 588.80,791.21 586.50,790.46 584.80,788.48"/>
    </edge>
    <edge id=":1273955905_3" function="internal">
        <lane id=":1273955905_3_0" index="0" disallow="tram rail_urban rail rail_electric rail_fast ship" speed="6.36" length="9.04" shape="595.16,788.95 592.88,789.96 590.86,789.97 589.11,788.97 587.62,786.96"/>
    </edge>
    <edge id=":1273968939_0" function="internal">
        <lane id=":1273968939_0_0" index="0" disallow="tram rail_urban rail rail_electric rail_fast ship" speed="11.11" length="5.00" shape="506.92,1511.30 509.76,1515.42"/>
        <lane id=":1273968939_0_1" index="1" disallow="tram rail_urban rail rail_electric rail_fast ship" speed="11.11" length="5.00" shape="504.29,1513.12 507.13,1517.24"/>
    </edge>
    <edge id=":1354143311_0" function="internal">
        <lane id=":1354143311_0_0" index="0" disallow="tram rail_urban rail rail_electric rail_fast ship" speed="11.11" length="14.85" shape="1330.66,556.47 1327.47,541.96"/>
    </edge>
    <edge id=":1354143311_1" function="internal">
        <lane id=":1354143311_1_0" index="0" disallow="tram rail_urban rail rail_electric rail_fast ship" speed="5.87" length="9.12" shape="1322.65,547.28 1325.29,547.26 1326.98,546.36 1327.71,544.60 1327.47,541.96"/>
    </edge>
    <edge id=":1354143317_0" function="internal">
        <lane id=":1354143317_0_0" index="0" disallow="tram rail_urban rail rail_electric rail_fast ship" speed="13.89" length="9.56" shape="1327.19,379.75 1324.80,388.99"/>
        <lane id=":1354143317_0_1" index="1" disallow="tram rail_urban rail rail_electric rail_fast ship" speed="13.89" length="9.56" shape="1326.85,382.93 1324.29,392.15"/>
        <lane id=":1354143317_0_2" index="2" disallow="tram rail_urban rail rail_electric rail_fast ship" speed="13.89" length="9.56" shape="1326.51,386.11 1323.78,395.30"/>
    </edge>
    <edge id=":1354143317_3" function="internal">
        <lane id=":1354143317_3_0" index="0" disallow="tram rail_urban rail rail_electric rail_fast ship" speed="10.26" length="4.73" shape="1320.03,395.76 1324.29,392.15"/>
        <lane id=":1354143317_3_1" index="1" disallow="tram rail_urban rail rail_electric rail_fast ship" speed="8.61" length="4.73" shape="1320.03,395.76 1321.09,395.34 1321.86,395.14 1322.65,395.14 1323.78,395.30"/>
    </edge>
    <edge id=":1354143319_0" function="internal">
        <lane id=":1354143319_0_0" index="0" disallow="tram rail_urban rail rail_electric rail_fast ship" speed="6.51" length="8.99" shape="1643.92,428.12 1643.96,430.59 1644.77,432.45 1646.36,433.72 1648.73,434.39"/>
    </edge>
    <edge id=":1354143319_1" function="internal">
        <lane id=":1354143319_1_0" index="0" disallow="tram rail_urban rail rail_electric rail_fast ship" speed="13.89" length="11.10" shape="1637.69,432.95 1648.73,434.39"/>
        <lane id=":1354143319_1_1" index="1" disallow="tram rail_urban rail rail_electric rail_fast ship" speed="13.89" length="11.10" shape="1637.29,436.12 1648.30,437.56"/>
        <lane id=":1354143319_1_2" index="2" disallow="tram rail_urban rail rail_electric rail_fast ship" speed="13.89" length="11.10" shape="1636.89,439.30 1647.87,440.73"/>
    </edge>
    <edge id=":1405230313_0" function="internal">
        <lane id=":1405230313_0_0" index="0" allow="pedestrian delivery bicycle" speed="6.79" length="4.97" shape="525.26,1307.13 525.62,1308.33 526.08,1310.09 526.36,1311.81 526.18,1312.88"/>
        <lane id=":1405230313_0_1" index="1" allow="pedestrian delivery bicycle" speed="5.74" length="4.97" shape="525.26,1307.13 525.34,1307.92 525.13,1308.78 524.62,1309.72 523.82,1310.73"/>
    </edge>
    <edge id=":1620443301_0" function="internal">
        <lane id=":1620443301_0_0" index="0" allow="pedestrian delivery bicycle" speed="7.04" length="6.19" shape="1451.80,408.53 1453.00,408.45 1454.26,407.90 1455.55,406.90 1456.89,405.44"/>
    </edge>
    <edge id=":1620443301_1" function="internal">
        <lane id=":1620443301_1_0" index="0" disallow="tram rail_urban rail rail_electric rail_fast ship" speed="13.89" length="6.72" shape="1451.80,408.53 1458.48,409.39"/>
        <lane id=":1620443301_1_1" index="1" disallow="tram rail_urban rail rail_electric rail_fast ship" speed="13.89" length="6.72" shape="1451.40,411.71 1458.07,412.56"/>
        <lane id=":1620443301_1_2" index="2" disallow="tram rail_urban rail rail_electric rail_fast ship" speed="13.89" length="6.72" shape="1451.01,414.88 1457.67,415.73"/>
    </edge>
    <edge id=":1721488409_0" function="internal">
        <lane id=":1721488409_0_0" index="0" disallow="tram rail_urban rail rail_electric rail_fast ship" speed="11.11" length="5.03" shape="1474.25,1314.01 1470.00,1316.70"/>
        <lane id=":1721488409_0_1" index="1" disallow="tram rail_urban rail rail_electric rail_fast ship" speed="11.11" length="5.03" shape="1472.53,1311.31 1468.29,1314.00"/>
    </edge>
    <edge id=":1721488410_0" function="internal">
        <lane id=":1721488410_0_0" index="0" disallow="tram rail_urban rail rail_electric rail_fast ship" speed="11.11" length="5.02" shape="1419.96,1199.53 1424.26,1196.95"/>
    </edge>
    <edge id=":1829386762_0" function="internal">
        <lane id=":1829386762_0_0" index="0" disallow="tram rail_urban rail rail_electric rail_fast ship" speed="8.33" length="7.02" shape="447.28,1875.10 443.29,1869.33"/>
        <lane id=":1829386762_0_1" index="1" disallow="tram rail_urban rail rail_electric rail_fast ship" speed="8.33" length="7.02" shape="449.91,1873.28 445.92,1867.51"/>
    </edge>
    <edge id=":1830390037_0" function="internal">
        <lane id=":1830390037_0_0" index="0" disallow="tram rail_urban rail rail_electric rail_fast ship" speed="6.51" length="9.01" shape="499.44,558.31 499.50,560.78 500.32,562.64 501.93,563.89 504.31,564.54"/>
    </edge>
    <edge id=":1830390037_1" function="internal">
        <lane id=":1830390037_1_0" index="0" disallow="tram rail_urban rail rail_electric rail_fast ship" speed="7.33" length="11.70" shape="499.44,558.31 499.33,562.16 500.03,565.02 501.56,566.87 503.92,567.72"/>
    </edge>
    <edge id=":1830390037_2" function="internal">
        <lane id=":1830390037_2_0" index="0" disallow="tram rail_urban rail rail_electric rail_fast ship" speed="8.10" length="14.54" shape="499.44,558.31 499.16,563.55 499.74,567.40 501.19,569.85 503.52,570.89"/>
    </edge>
    <edge id=":1830390037_3" function="internal">
        <lane id=":1830390037_3_0" index="0" disallow="tram rail_urban rail rail_electric rail_fast ship" speed="13.89" length="17.53" shape="496.27,557.92 495.34,575.43"/>
    </edge>
    <edge id=":1830390037_4" function="internal">
        <lane id=":1830390037_4_0" index="0" disallow="tram rail_urban rail rail_electric rail_fast ship" speed="9.04" length="15.09" shape="496.27,557.92 495.32,563.37 493.99,567.34 492.26,569.83 490.15,570.84"/>
    </edge>
    <edge id=":1831666956_0" function="internal">
        <lane id=":1831666956_0_0" index="0" disallow="tram rail_urban rail rail_electric rail_fast ship" speed="5.48" length="5.30" shape="694.14,939.92 693.14,938.10 692.25,936.86 691.47,936.19 690.81,936.09"/>
    </edge>
    <edge id=":1831666956_1" function="internal">
        <lane id=":1831666956_1_0" index="0" disallow="tram rail_urban rail rail_electric rail_fast ship" speed="13.89" length="9.82" shape="694.14,939.92 689.79,931.00"/>
        <lane id=":1831666956_1_1" index="1" disallow="tram rail_urban rail rail_electric rail_fast ship" speed="13.89" length="9.82" shape="697.00,938.48 692.67,929.62"/>
        <lane id=":1831666956_1_2" index="2" disallow="tram rail_urban rail rail_electric rail_fast ship" speed="13.89" length="9.82" shape="699.86,937.04 695.56,928.24"/>
        <lane id=":1831666956_1_3" index="3" disallow="tram rail_urban rail rail_electric rail_fast ship" speed="13.89" length="9.82" shape="702.71,935.59 698.45,926.86"/>
    </edge>
    <edge id=":1831666958_0" function="internal">
        <lane id=":1831666958_0_0" index="0" disallow="tram rail_urban rail rail_electric rail_fast ship" speed="6.04" length="9.07" shape="571.80,899.86 570.63,897.56 569.06,896.39 567.11,896.34 564.76,897.41"/>
    </edge>
    <edge id=":1831666958_1" function="internal">
        <lane id=":1831666958_1_0" index="0" disallow="tram rail_urban rail rail_electric rail_fast ship" speed="3.65" length="4.67" shape="571.80,899.86 572.17,898.47 572.80,897.83 573.68,897.95 574.83,898.83"/>
    </edge>
    <edge id=":1831666958_2" function="internal">
        <lane id=":1831666958_2_0" index="0" disallow="tram rail_urban rail rail_electric rail_fast ship" speed="7.62" length="10.40" shape="577.03,889.51 575.24,891.16 574.27,893.26 574.14,895.82 574.83,898.83"/>
    </edge>
    <edge id=":1831666958_3" function="internal">
        <lane id=":1831666958_3_0" index="0" disallow="tram rail_urban rail rail_electric rail_fast ship" speed="11.11" length="14.60" shape="577.03,889.51 564.76,897.41"/>
        <lane id=":1831666958_3_1" index="1" disallow="tram rail_urban rail rail_electric rail_fast ship" speed="11.11" length="14.60" shape="575.30,886.82 563.03,894.72"/>
        <lane id=":1831666958_3_2" index="2" disallow="tram rail_urban rail rail_electric rail_fast ship" speed="11.11" length="14.60" shape="573.57,884.13 561.30,892.03"/>
    </edge>
    <edge id=":1831673636_0" function="internal">
        <lane id=":1831673636_0_0" index="0" disallow="tram rail_urban rail rail_electric rail_fast ship" speed="7.73" length="9.81" shape="537.90,830.36 534.08,831.37 531.12,831.75 529.04,831.49 527.84,830.59"/>
        <lane id=":1831673636_0_1" index="1" disallow="tram rail_urban rail rail_electric rail_fast ship" speed="7.22" length="9.81" shape="536.95,827.31 534.11,827.94 531.78,827.91 529.95,827.22 528.63,825.87"/>
    </edge>
    <edge id=":1841915463_0" function="internal">
        <lane id=":1841915463_0_0" index="0" allow="pedestrian delivery bicycle" speed="39.44" length="5.32" shape="311.73,1450.37 307.25,1453.23"/>
        <lane id=":1841915463_0_1" index="1" allow="pedestrian delivery bicycle" speed="39.44" length="5.32" shape="310.01,1447.68 305.53,1450.54"/>
    </edge>
    <edge id=":257946570_0" function="internal">
        <lane id=":257946570_0_0" index="0" disallow="tram rail_urban rail rail_electric rail_fast ship" speed="8.33" length="14.03" shape="489.86,608.40 484.00,595.58"/>
        <lane id=":257946570_0_1" index="1" disallow="tram rail_urban rail rail_electric rail_fast ship" speed="8.33" length="14.03" shape="492.71,606.96 486.92,594.27"/>
    </edge>
    <edge id=":257946570_2" function="internal">
        <lane id=":257946570_2_0" index="0" disallow="tram rail_urban rail rail_electric rail_fast ship" speed="5.48" length="10.67" shape="492.26,593.59 491.34,597.07 490.15,598.34 488.67,597.40 486.92,594.27"/>
    </edge>
    <edge id=":257946574_0" function="internal">
        <lane id=":257946574_0_0" index="0" disallow="tram rail_urban rail rail_electric rail_fast ship" speed="8.33" length="10.22" shape="520.93,669.75 516.18,660.65"/>
        <lane id=":257946574_0_1" index="1" disallow="tram rail_urban rail rail_electric rail_fast ship" speed="8.33" length="10.22" shape="523.74,668.23 519.03,659.21"/>
    </edge>
    <edge id=":257946574_2" function="internal">
        <lane id=":257946574_2_0" index="0" disallow="tram rail_urban rail rail_electric rail_fast ship" speed="6.63" length="8.54" shape="514.00,668.02 515.79,666.46 516.75,664.71 516.88,662.77 516.18,660.65"/>
    </edge>
    <edge id=":257946582_0" function="internal">
        <lane id=":257946582_0_0" index="0" disallow="tram rail_urban rail rail_electric rail_fast ship" speed="6.84" length="10.25" shape="450.43,701.76 452.39,704.19 454.47,705.48 456.65,705.63 458.94,704.64"/>
    </edge>
    <edge id=":257946582_1" function="internal">
        <lane id=":257946582_1_0" index="0" disallow="tram rail_urban rail rail_electric rail_fast ship" speed="8.33" length="14.54" shape="450.43,701.76 457.79,714.30"/>
    </edge>
    <edge id=":257946582_2" function="internal">
        <lane id=":257946582_2_0" index="0" disallow="tram rail_urban rail rail_electric rail_fast ship" speed="7.60" length="12.09" shape="450.43,701.76 452.18,705.19 452.74,708.14 452.11,710.61 450.30,712.60"/>
    </edge>
    <edge id=":257946582_3" function="internal">
        <lane id=":257946582_3_0" index="0" disallow="tram rail_urban rail rail_electric rail_fast ship" speed="6.82" length="9.55" shape="450.43,701.76 451.41,704.02 451.41,706.15 450.41,708.14 448.42,710.01"/>
    </edge>
    <edge id=":257946590_0" function="internal">
        <lane id=":257946590_0_0" index="0" disallow="tram rail_urban rail rail_electric rail_fast ship" speed="9.72" length="14.43" shape="472.81,743.97 471.41,742.89 468.65,741.94 464.52,741.11 459.04,740.40"/>
    </edge>
    <edge id=":257946590_1" function="internal">
        <lane id=":257946590_1_0" index="0" disallow="tram rail_urban rail rail_electric rail_fast ship" speed="9.72" length="17.24" shape="475.51,742.25 473.65,740.59 470.34,739.20 465.58,738.08 459.38,737.22"/>
    </edge>
    <edge id=":257946590_2" function="internal">
        <lane id=":257946590_2_0" index="0" disallow="tram rail_urban rail rail_electric rail_fast ship" speed="9.72" length="18.42" shape="475.51,742.25 472.85,739.10 469.33,736.68 464.95,734.99 459.71,734.03"/>
    </edge>
    <edge id=":257946590_3" function="internal">
        <lane id=":257946590_3_0" index="0" disallow="tram rail_urban rail rail_electric rail_fast ship" speed="6.86" length="14.80" shape="462.95,723.82 465.02,728.65 465.17,731.97 463.40,733.76 459.71,734.03"/>
    </edge>
    <edge id=":257946590_4" function="internal">
        <lane id=":257946590_4_0" index="0" disallow="tram rail_urban rail rail_electric rail_fast ship" speed="5.93" length="10.67" shape="462.95,723.82 464.35,727.17 464.33,729.47 462.89,730.69 460.04,730.85"/>
    </edge>
    <edge id=":257946590_5" function="internal">