<routes xmlns:xsi="http://www.w3.org/2001/XMLSchema-instance" xsi:noNamespaceSchemaLocation="http://sumo.dlr.de/xsd/routes_file.xsd">
    <vType id="veh_passenger" vClass="passenger" />
    <vType emissionClass="HBEFA3/PC_G_EU4" id="veh_pc_E4" vClass="passenger" />
    <vType emissionClass="HBEFA3/PC_G_EU5" id="veh_pc_E5" vClass="passenger" />
    <vType emissionClass="HBEFA3/PC_G_EU6" id="veh_pc_E6" vClass="passenger" />
    <trip depart="0.00" from="430072721#0" id="veh0" to="-75036007#0" type="veh_pc_E6" />
    <trip depart="20.00" from="435491726#22" id="veh2" to="430077169#6" type="veh_pc_E4" />
    <trip depart="30.00" from="618055292#0" id="veh3" to="129897442#4" type="veh_pc_E6" />
    <trip depart="50.00" from="28707280#1" id="veh5" to="406644984#1" type="veh_pc_E4" />
    <trip depart="60.00" from="-654035438" id="veh6" to="279864811#0" type="veh_pc_E6" />
    <trip depart="70.00" from="430072721#7" id="veh7" to="410089534#9" type="veh_pc_E4" />
    <trip depart="80.00" from="28798001#0" id="veh8" to="412495542#0" type="veh_pc_E4" />
    <trip depart="90.00" from="442469223#1" id="veh9" to="-35557447#0" type="veh_pc_E5" />
    <trip depart="100.00" from="442451694" id="veh10" to="435343301#1" type="veh_pc_E5" />
    <trip depart="110.00" from="331470728#0" id="veh11" to="279043423#0" type="veh_pc_E5" />
    <trip depart="120.00" from="75036014#0" id="veh12" to="320898743#2" type="veh_pc_E6" />
    <trip depart="130.00" from="129897442#4" id="veh13" to="144953677#0" type="veh_pc_E4" />
    <trip depart="140.00" from="44364644#0" id="veh14" to="413976459#3" type="veh_pc_E4" />
    <trip depart="150.00" from="442451694" id="veh15" to="435491726#18" type="veh_pc_E5" />
    <trip depart="160.00" from="410089534#7" id="veh16" to="75036027#3" type="veh_pc_E4" />
    <trip depart="170.00" from="344149309#0" id="veh17" to="412296083#2" type="veh_pc_E6" />
    <trip depart="180.00" from="442867200#7" id="veh18" to="428032853#0" type="veh_pc_E4" />
    <trip depart="190.00" from="44364645#7" id="veh19" to="412307193#0" type="veh_pc_E5" />
    <trip depart="200.00" from="435491726#1" id="veh20" to="111948492" type="veh_pc_E6" />
    <trip depart="210.00" from="298367761#6" id="veh21" to="319662804#2" type="veh_pc_E5" />
    <trip depart="220.00" from="129897418" id="veh22" to="298367768#7" type="veh_pc_E5" />
    <trip depart="230.00" from="129897454#1" id="veh23" to="315199154#0" type="veh_pc_E6" />
    <trip depart="240.00" from="430072204#2" id="veh24" to="331470728#9" type="veh_pc_E5" />
    <trip depart="250.00" from="336833691#1" id="veh25" to="284929209#2" type="veh_pc_E6" />
    <trip depart="260.00" from="304442660#1" id="veh26" to="627176990#1" type="veh_pc_E5" />
    <trip depart="270.00" from="430072721#6" id="veh27" to="413976463#2" type="veh_pc_E5" />
    <trip depart="280.00" from="279043423#1" id="veh28" to="435491726#18" type="veh_pc_E6" />
    <trip depart="290.00" from="279043423#0" id="veh29" to="344149309#3" type="veh_pc_E4" />
    <trip depart="300.00" from="75223322#3" id="veh30" to="430072204#1" type="veh_pc_E5" />
    <trip depart="310.00" from="412296575#2" id="veh31" to="430410163#2" type="veh_pc_E5" />
    <trip depart="320.00" from="44364379#3" id="veh32" to="442309012#0" type="veh_pc_E5" />
    <trip depart="330.00" from="298367768#2" id="veh33" to="-75036014#0" type="veh_pc_E4" />
    <trip depart="340.00" from="319788732#1" id="veh34" to="304442660#1" type="veh_pc_E6" />
    <trip depart="350.00" from="284929209#2" id="veh35" to="651186341#2" type="veh_pc_E6" />
    <trip depart="360.00" from="563946130" id="veh36" to="319788732#1" type="veh_pc_E4" />
    <trip depart="370.00" from="430077168#0" id="veh37" to="35557442#0" type="veh_pc_E5" />
    <trip depart="380.00" from="619019400#1" id="veh38" to="391958207#7" type="veh_pc_E4" />
    <trip depart="390.00" from="304442660#0" id="veh39" to="299781215" type="veh_pc_E5" />
    <trip depart="400.00" from="412296576#1" id="veh40" to="304437030#5" type="veh_pc_E5" />
    <trip depart="410.00" from="412495542#0" id="veh41" to="618118082#2" type="veh_pc_E5" />
    <trip depart="420.00" from="35557450#1" id="veh42" to="28707280#1" type="veh_pc_E5" />
    <trip depart="430.00" from="75243088#4" id="veh43" to="410089530#1" type="veh_pc_E4" />
    <trip depart="440.00" from="129897442#3" id="veh44" to="111948492" type="veh_pc_E4" />
    <trip depart="450.00" from="144953677#1" id="veh45" to="428046226#0" type="veh_pc_E6" />
    <trip depart="460.00" from="442334036#0" id="veh46" to="370644951#12" type="veh_pc_E5" />
    <trip depart="480.00" from="75243088#2" id="veh48" to="410089534#4" type="veh_pc_E6" />
    <trip depart="490.00" from="75036027#3" id="veh49" to="44364645#3" type="veh_pc_E5" />
    <trip depart="500.00" from="-428073531#1" id="veh50" to="435491726#15" type="veh_pc_E5" />
    <trip depart="510.00" from="430410163#3" id="veh51" to="410089534#7" type="veh_pc_E6" />
    <trip depart="520.00" from="304442660#0" id="veh52" to="430072204#2" type="veh_pc_E6" />
    <trip depart="530.00" from="144953677#2" id="veh53" to="370644951#6" type="veh_pc_E4" />
    <trip depart="540.00" from="391958207#5" id="veh54" to="75036010#2" type="veh_pc_E5" />
    <trip depart="550.00" from="563946130" id="veh55" to="304437031" type="veh_pc_E4" />
    <trip depart="560.00" from="406644982#1" id="veh56" to="279864770#1" type="veh_pc_E5" />
    <trip depart="570.00" from="618315978#2" id="veh57" to="467318483#2" type="veh_pc_E5" />
    <trip depart="580.00" from="319662804#6" id="veh58" to="430072204#0" type="veh_pc_E4" />
    <trip depart="590.00" from="428030875#3" id="veh59" to="24252801#6" type="veh_pc_E6" />
    <trip depart="600.00" from="435707014#4" id="veh60" to="410089534#7" type="veh_pc_E6" />
    <trip depart="610.00" from="442309013#2" id="veh61" to="410089534#4" type="veh_pc_E5" />
    <trip depart="620.00" from="-111924331#0" id="veh62" to="319788732#3" type="veh_pc_E6" />
    <trip depart="630.00" from="-442317099#2" id="veh63" to="619019400#7" type="veh_pc_E6" />
    <trip depart="640.00" from="618055289#1" id="veh64" to="442867200#7" type="veh_pc_E6" />
    <trip depart="650.00" from="319662804#8" id="veh65" to="120863177#0" type="veh_pc_E5" />
    <trip depart="660.00" from="618055289#1" id="veh66" to="75036007#0" type="veh_pc_E5" />
    <trip depart="670.00" from="129897442#1" id="veh67" to="401506730#6" type="veh_pc_E5" />
    <trip depart="680.00" from="120863177#4" id="veh68" to="435707014#3" type="veh_pc_E6" />
    <trip depart="690.00" from="435707014#5" id="veh69" to="172243635" type="veh_pc_E4" />
    <trip depart="700.00" from="401506730#2" id="veh70" to="412296083#1" type="veh_pc_E5" />
    <trip depart="710.00" from="304442660#0" id="veh71" to="467318483#2" type="veh_pc_E4" />
    <trip depart="730.00" from="410089534#8" id="veh73" to="435491726#18" type="veh_pc_E6" />
    <trip depart="740.00" from="279864811#0" id="veh74" to="319662804#8" type="veh_pc_E5" />
    <trip depart="750.00" from="75243088#2" id="veh75" to="430072721#4" type="veh_pc_E6" />
    <trip depart="760.00" from="370644951#9" id="veh76" to="410089531#2" type="veh_pc_E4" />
    <trip depart="780.00" from="331470728#0" id="veh78" to="412495541#3" type="veh_pc_E6" />
    <trip depart="800.00" from="120863177#4" id="veh80" to="428046226#3" type="veh_pc_E5" />
    <trip depart="810.00" from="298367768#2" id="veh81" to="618118685#1" type="veh_pc_E4" />
    <trip depart="830.00" from="298431255#1" id="veh83" to="430077169#2" type="veh_pc_E4" />
    <trip depart="840.00" from="28707264#1" id="veh84" to="24252780" type="veh_pc_E4" />
    <trip depart="850.00" from="627176990#0" id="veh85" to="412296576#2" type="veh_pc_E6" />
    <trip depart="860.00" from="401506730#1" id="veh86" to="442309013#2" type="veh_pc_E6" />
    <trip depart="870.00" from="442451694" id="veh87" to="279864770#4" type="veh_pc_E6" />
    <trip depart="880.00" from="129897449" id="veh88" to="370644951#5" type="veh_pc_E6" />
    <trip depart="900.00" from="435491726#20" id="veh90" to="430077169#5" type="veh_pc_E5" />
    <trip depart="910.00" from="75223322#1" id="veh91" to="144953677#0" type="veh_pc_E6" />
    <trip depart="920.00" from="35557450#3" id="veh92" to="331470728#0" type="veh_pc_E4" />
    <trip depart="930.00" from="44364645#7" id="veh93" to="304437030#0" type="veh_pc_E5" />
    <trip depart="940.00" from="279864770#4" id="veh94" to="391958207#2" type="veh_pc_E5" />
    <trip depart="960.00" from="304437030#0" id="veh96" to="619019400#4" type="veh_pc_E4" />
    <trip depart="970.00" from="391958207#0" id="veh97" to="44364645#3" type="veh_pc_E6" />
    <trip depart="980.00" from="412296084" id="veh98" to="118291788#1" type="veh_pc_E5" />
    <trip depart="990.00" from="75243088#5" id="veh99" to="442867200#8" type="veh_pc_E4" />
    <trip depart="1000.00" from="75036027#2" id="veh100" to="619019400#5" type="veh_pc_E4" />
    <trip depart="1010.00" from="44364644#1" id="veh101" to="279043423#1" type="veh_pc_E6" />
    <trip depart="1020.00" from="401506730#6" id="veh102" to="28707264#1" type="veh_pc_E6" />
    <trip depart="1030.00" from="35557450#2" id="veh103" to="120863177#1" type="veh_pc_E5" />
    <trip depart="1040.00" from="344149309#0" id="veh104" to="75223322#1" type="veh_pc_E6" />
    <trip depart="1050.00" from="304442660#0" id="veh105" to="442309013#1" type="veh_pc_E4" />
    <trip depart="1060.00" from="391958207#5" id="veh106" to="370644951#13" type="veh_pc_E5" />
    <trip depart="1080.00" from="412296575#1" id="veh108" to="435491726#13" type="veh_pc_E4" />
    <trip depart="1090.00" from="24252801#3" id="veh109" to="319662804#5" type="veh_pc_E6" />
    <trip depart="1100.00" from="75036027#2" id="veh110" to="412307193#0" type="veh_pc_E4" />
    <trip depart="1110.00" from="410089534#8" id="veh111" to="435491726#5" type="veh_pc_E4" />
    <trip depart="1120.00" from="120863177#0" id="veh112" to="412307193#1" type="veh_pc_E5" />
    <trip depart="1130.00" from="406644984#0" id="veh113" to="44364644#1" type="veh_pc_E5" />
    <trip depart="1140.00" from="24252801#4" id="veh114" to="75036017" type="veh_pc_E5" />
    <trip depart="1150.00" from="129897427" id="veh115" to="279864770#3" type="veh_pc_E6" />
    <trip depart="1160.00" from="413976459#2" id="veh116" to="430077169#5" type="veh_pc_E4" />
    <trip depart="1170.00" from="298367768#7" id="veh117" to="151316320#7" type="veh_pc_E6" />
    <trip depart="1180.00" from="618055291#4" id="veh118" to="299781215" type="veh_pc_E5" />
    <trip depart="1190.00" from="413976459#1" id="veh119" to="428032853#0" type="veh_pc_E4" />
    <trip depart="1200.00" from="370644951#10" id="veh120" to="412307193#1" type="veh_pc_E6" />
    <trip depart="1210.00" from="410089534#0" id="veh121" to="627176989" type="veh_pc_E4" />
    <trip depart="1220.00" from="279864813#0" id="veh122" to="435491726#13" type="veh_pc_E6" />
    <trip depart="1230.00" from="298431255#2" id="veh123" to="35557442#0" type="veh_pc_E4" />
    <trip depart="1240.00" from="430077169#6" id="veh124" to="319662804#6" type="veh_pc_E6" />
    <trip depart="1250.00" from="319788732#1" id="veh125" to="435491726#9" type="veh_pc_E6" />
    <trip depart="1260.00" from="126587263#0" id="veh126" to="391958207#7" type="veh_pc_E4" />
    <trip depart="1280.00" from="126587263#0" id="veh128" to="28707264#1" type="veh_pc_E4" />
    <trip depart="1290.00" from="304442660#0" id="veh129" to="619019400#8" type="veh_pc_E6" />
    <trip depart="1300.00" from="618055289#2" id="veh130" to="618055289#2" type="veh_pc_E4" />
    <trip depart="1310.00" from="336833691#1" id="veh131" to="279043423#0" type="veh_pc_E6" />
    <trip depart="1320.00" from="442867200#8" id="veh132" to="435393029#1" type="veh_pc_E6" />
    <trip depart="1330.00" from="428030875#5" id="veh133" to="75223322#1" type="veh_pc_E6" />
    <trip depart="1340.00" from="430072721#8" id="veh134" to="-35557707" type="veh_pc_E6" />
    <trip depart="1350.00" from="442867200#1" id="veh135" to="319662804#6" type="veh_pc_E6" />
    <trip depart="1360.00" from="430077169#2" id="veh136" to="651186341#0" type="veh_pc_E4" />
    <trip depart="1370.00" from="172243635" id="veh137" to="151316320#5" type="veh_pc_E6" />
    <trip depart="1380.00" from="144953677#0" id="veh138" to="412296083#2" type="veh_pc_E4" />
    <trip depart="1390.00" from="319515359#0" id="veh139" to="413976463#0" type="veh_pc_E6" />
    <trip depart="1400.00" from="435491726#15" id="veh140" to="284929204#0" type="veh_pc_E5" />
    <trip depart="1410.00" from="430072204#1" id="veh141" to="304437031" type="veh_pc_E5" />
    <trip depart="1420.00" from="401506730#7" id="veh142" to="618118685#1" type="veh_pc_E5" />
    <trip depart="1430.00" from="44364379#4" id="veh143" to="129897454#1" type="veh_pc_E4" />
    <trip depart="1450.00" from="-129897427" id="veh145" to="435707014#5" type="veh_pc_E4" />
    <trip depart="1460.00" from="430072204#3" id="veh146" to="304437030#5" type="veh_pc_E6" />
    <trip depart="1470.00" from="435491726#5" id="veh147" to="412296083#2" type="veh_pc_E5" />
    <trip depart="1480.00" from="370644951#2" id="veh148" to="-428035708" type="veh_pc_E6" />
    <trip depart="1490.00" from="126587263#2" id="veh149" to="618055289#3" type="veh_pc_E6" />
    <trip depart="1500.00" from="618118083#1" id="veh150" to="410089534#9" type="veh_pc_E6" />
    <trip depart="1510.00" from="442867200#8" id="veh151" to="412307193#1" type="veh_pc_E5" />
    <trip depart="1520.00" from="24252801#0" id="veh152" to="172243635" type="veh_pc_E4" />
    <trip depart="1530.00" from="319662804#8" id="veh153" to="618118082#2" type="veh_pc_E4" />
    <trip depart="1540.00" from="442334036#1" id="veh154" to="44364645#3" type="veh_pc_E5" />
    <trip depart="1550.00" from="618118082#2" id="veh155" to="284929209#2" type="veh_pc_E5" />
    <trip depart="1560.00" from="304437030#0" id="veh156" to="144953677#2" type="veh_pc_E5" />
    <trip depart="1570.00" from="442309013#2" id="veh157" to="618055290" type="veh_pc_E4" />
    <trip depart="1580.00" from="355607761#0" id="veh158" to="428032853#0" type="veh_pc_E6" />
    <trip depart="1590.00" from="24252801#3" id="veh159" to="619019400#7" type="veh_pc_E5" />
    <trip depart="1600.00" from="467318483#0" id="veh160" to="75036027#4" type="veh_pc_E6" />
    <trip depart="1610.00" from="442469224#1" id="veh161" to="618055289#2" type="veh_pc_E4" />
    <trip depart="1620.00" from="-618289633" id="veh162" to="435491726#21" type="veh_pc_E5" />
    <trip depart="1630.00" from="320898743#1" id="veh163" to="619019400#7" type="veh_pc_E5" />
    <trip depart="1640.00" from="442451693" id="veh164" to="44364645#4" type="veh_pc_E5" />
    <trip depart="1650.00" from="442469224#1" id="veh165" to="304442660#0" type="veh_pc_E4" />
    <trip depart="1660.00" from="442317099#2" id="veh166" to="151316320#1" type="veh_pc_E4" />
    <trip depart="1670.00" from="4832866" id="veh167" to="44364645#2" type="veh_pc_E5" />
    <trip depart="1680.00" from="298367761#0" id="veh168" to="442469224#1" type="veh_pc_E5" />
    <trip depart="1690.00" from="391958207#8" id="veh169" to="319662804#7" type="veh_pc_E5" />
    <trip depart="1700.00" from="442334036#1" id="veh170" to="298367768#2" type="veh_pc_E6" />
    <trip depart="1710.00" from="-617934930" id="veh171" to="279864770#5" type="veh_pc_E4" />
    <trip depart="1720.00" from="320898740" id="veh172" to="44364645#4" type="veh_pc_E6" />
    <trip depart="1730.00" from="75036027#1" id="veh173" to="315199154#0" type="veh_pc_E4" />
    <trip depart="1740.00" from="430072721#3" id="veh174" to="35557447#1" type="veh_pc_E5" />
    <trip depart="1750.00" from="75223312#1" id="veh175" to="410089534#7" type="veh_pc_E5" />
    <trip depart="1760.00" from="651186341#0" id="veh176" to="151316320#5" type="veh_pc_E6" />
    <trip depart="1770.00" from="75036027#3" id="veh177" to="279864770#1" type="veh_pc_E4" />
    <trip depart="1780.00" from="75036023" id="veh178" to="304442660#0" type="veh_pc_E4" />
    <trip depart="1790.00" from="144953677#1" id="veh179" to="370644951#6" type="veh_pc_E5" />
    <trip depart="1800.00" from="435491726#20" id="veh180" to="319662804#8" type="veh_pc_E4" />
    <trip depart="1810.00" from="428030875#1" id="veh181" to="410089530#2" type="veh_pc_E6" />
    <trip depart="1820.00" from="35557263#2" id="veh182" to="412307193#0" type="veh_pc_E5" />
    <trip depart="1830.00" from="304437030#2" id="veh183" to="435393029#2" type="veh_pc_E4" />
    <trip depart="1840.00" from="-111924331#1" id="veh184" to="619019400#5" type="veh_pc_E6" />
    <trip depart="1850.00" from="410089534#7" id="veh185" to="435491726#13" type="veh_pc_E5" />
    <trip depart="1860.00" from="435491726#5" id="veh186" to="430077169#2" type="veh_pc_E5" />
    <trip depart="1880.00" from="430077169#2" id="veh188" to="320898734#1" type="veh_pc_E6" />
    <trip depart="1890.00" from="319788732#1" id="veh189" to="44364379#4" type="veh_pc_E4" />
    <trip depart="1900.00" from="435491726#18" id="veh190" to="319662804#6" type="veh_pc_E5" />
    <trip depart="1910.00" from="319662804#8" id="veh191" to="355607761#2" type="veh_pc_E6" />
    <trip depart="1920.00" from="35557450#3" id="veh192" to="319662804#5" type="veh_pc_E5" />
    <trip depart="1930.00" from="172098498#2" id="veh193" to="370644951#12" type="veh_pc_E5" />
    <trip depart="1940.00" from="651186341#1" id="veh194" to="430077169#6" type="veh_pc_E6" />
    <trip depart="1950.00" from="618118083#1" id="veh195" to="428030875#3" type="veh_pc_E4" />
    <trip depart="1960.00" from="319662804#6" id="veh196" to="412296083#1" type="veh_pc_E4" />
    <trip depart="1980.00" from="370644951#2" id="veh198" to="412307193#1" type="veh_pc_E4" />
    <trip depart="1990.00" from="430077168#0" id="veh199" to="391958207#9" type="veh_pc_E6" />
    <trip depart="2000.00" from="391958206#0" id="veh200" to="28707264#1" type="veh_pc_E5" />
    <trip depart="2010.00" from="401506730#1" id="veh201" to="618118083#1" type="veh_pc_E4" />
    <trip depart="2020.00" from="442334036#1" id="veh202" to="279043423#2" type="veh_pc_E5" />
    <trip depart="2030.00" from="129897442#1" id="veh203" to="410089531#1" type="veh_pc_E5" />
    <trip depart="2040.00" from="430072204#0" id="veh204" to="320898743#1" type="veh_pc_E5" />
    <trip depart="2050.00" from="442867200#1" id="veh205" to="435491726#9" type="veh_pc_E6" />
    <trip depart="2070.00" from="279864789" id="veh207" to="-654035438" type="veh_pc_E4" />
    <trip depart="2080.00" from="299781215" id="veh208" to="401506730#2" type="veh_pc_E6" />
    <trip depart="2090.00" from="44364644#2" id="veh209" to="129897418" type="veh_pc_E6" />
    <trip depart="2100.00" from="355775773" id="veh210" to="428046226#2" type="veh_pc_E4" />
    <trip depart="2120.00" from="406644981#1" id="veh212" to="299781215" type="veh_pc_E5" />
    <trip depart="2130.00" from="430077168#0" id="veh213" to="-264858336" type="veh_pc_E5" />
    <trip depart="2140.00" from="435707014#1" id="veh214" to="435707014#4" type="veh_pc_E4" />
    <trip depart="2150.00" from="144953677#0" id="veh215" to="370644951#13" type="veh_pc_E4" />
    <trip depart="2160.00" from="279864770#0" id="veh216" to="75036014#0" type="veh_pc_E6" />
    <trip depart="2170.00" from="410089531#2" id="veh217" to="118291788#1" type="veh_pc_E4" />
    <trip depart="2180.00" from="304437030#0" id="veh218" to="44364379#4" type="veh_pc_E6" />
    <trip depart="2190.00" from="391958207#6" id="veh219" to="442334036#1" type="veh_pc_E6" />
    <trip depart="2200.00" from="430077169#5" id="veh220" to="75223322#2" type="veh_pc_E6" />
    <trip depart="2210.00" from="413976459#2" id="veh221" to="75036007#2" type="veh_pc_E5" />
    <trip depart="2230.00" from="435491726#15" id="veh223" to="406644984#0" type="veh_pc_E4" />
    <trip depart="2240.00" from="442867200#8" id="veh224" to="412296083#1" type="veh_pc_E5" />
    <trip depart="2250.00" from="618118082#2" id="veh225" to="435491726#22" type="veh_pc_E4" />
    <trip depart="2260.00" from="401506730#2" id="veh226" to="304437030#4" type="veh_pc_E4" />
    <trip depart="2270.00" from="299781216" id="veh227" to="428073531#1" type="veh_pc_E5" />
    <trip depart="2280.00" from="435707014#5" id="veh228" to="410089534#0" type="veh_pc_E6" />
    <trip depart="2290.00" from="428046226#4" id="veh229" to="304549060" type="veh_pc_E5" />
    <trip depart="2310.00" from="304442660#2" id="veh231" to="319788732#2" type="veh_pc_E4" />
    <trip depart="2320.00" from="410089534#8" id="veh232" to="24252788#1" type="veh_pc_E5" />
    <trip depart="2330.00" from="298367768#3" id="veh233" to="435343301#1" type="veh_pc_E5" />
    <trip depart="2340.00" from="435491726#1" id="veh234" to="120863177#2" type="veh_pc_E4" />
    <trip depart="2350.00" from="355607761#0" id="veh235" to="410089534#8" type="veh_pc_E6" />
    <trip depart="2360.00" from="370644951#0" id="veh236" to="284929204#2" type="veh_pc_E6" />
    <trip depart="2370.00" from="370644951#10" id="veh237" to="618118685#1" type="veh_pc_E4" />
    <trip depart="2380.00" from="412495542#0" id="veh238" to="435343301#1" type="veh_pc_E4" />
    <trip depart="2390.00" from="44364645#3" id="veh239" to="435707014#4" type="veh_pc_E5" />
    <trip depart="2400.00" from="344149309#3" id="veh240" to="-264858336" type="veh_pc_E6" />
    <trip depart="2410.00" from="331470728#13" id="veh241" to="435491726#9" type="veh_pc_E4" />
    <trip depart="2420.00" from="44364645#0" id="veh242" to="75036010#2" type="veh_pc_E5" />
    <trip depart="2430.00" from="370644951#10" id="veh243" to="435491726#5" type="veh_pc_E5" />
    <trip depart="2440.00" from="410089534#9" id="veh244" to="413976459#3" type="veh_pc_E4" />
    <trip depart="2450.00" from="28798001#0" id="veh245" to="28707280#1" type="veh_pc_E5" />
    <trip depart="2460.00" from="370644951#7" id="veh246" to="-75036013#1" type="veh_pc_E4" />
    <trip depart="2470.00" from="320898743#2" id="veh247" to="430077169#8" type="veh_pc_E6" />
    <trip depart="2480.00" from="355607761#0" id="veh248" to="279043423#1" type="veh_pc_E6" />
    <trip depart="2490.00" from="39413204#1" id="veh249" to="172243635" type="veh_pc_E4" />
    <trip depart="2500.00" from="428046226#1" id="veh250" to="-75036007#1" type="veh_pc_E4" />
    <trip depart="2510.00" from="35557265#4" id="veh251" to="412296575#2" type="veh_pc_E4" />
    <trip depart="2520.00" from="-654035438" id="veh252" to="430072204#3" type="veh_pc_E6" />
    <trip depart="2530.00" from="172244021#0" id="veh253" to="391958207#8" type="veh_pc_E4" />
    <trip depart="2550.00" from="284929209#2" id="veh255" to="320884186" type="veh_pc_E5" />
    <trip depart="2560.00" from="435707014#4" id="veh256" to="344149309#3" type="veh_pc_E4" />
    <trip depart="2570.00" from="435707014#1" id="veh257" to="442867200#7" type="veh_pc_E5" />
    <trip depart="2580.00" from="304437030#1" id="veh258" to="129897442#2" type="veh_pc_E4" />
    <trip depart="2590.00" from="-442317099#2" id="veh259" to="410089534#7" type="veh_pc_E6" />
    <trip depart="2600.00" from="75243088#5" id="veh260" to="331470728#12" type="veh_pc_E4" />
    <trip depart="2610.00" from="430072721#7" id="veh261" to="442309013#0" type="veh_pc_E6" />
    <trip depart="2620.00" from="430072721#7" id="veh262" to="435491726#9" type="veh_pc_E6" />
    <trip depart="2630.00" from="75036010#0" id="veh263" to="279864811#0" type="veh_pc_E6" />
    <trip depart="2640.00" from="-479823503" id="veh264" to="24252801#6" type="veh_pc_E4" />
    <trip depart="2650.00" from="151316320#7" id="veh265" to="430077169#2" type="veh_pc_E4" />
    <trip depart="2660.00" from="412296576#1" id="veh266" to="28707280#1" type="veh_pc_E6" />
    <trip depart="2670.00" from="435393029#1" id="veh267" to="435707014#4" type="veh_pc_E6" />
    <trip depart="2680.00" from="279043423#0" id="veh268" to="413976463#2" type="veh_pc_E6" />
    <trip depart="2690.00" from="435491726#9" id="veh269" to="151316320#5" type="veh_pc_E4" />
    <trip depart="2700.00" from="442867200#1" id="veh270" to="75036027#0" type="veh_pc_E6" />
    <trip depart="2710.00" from="144953677#1" id="veh271" to="-75036007#0" type="veh_pc_E5" />
    <trip depart="2720.00" from="319662804#8" id="veh272" to="430077169#6" type="veh_pc_E5" />
    <trip depart="2730.00" from="75036014#1" id="veh273" to="35557442#1" type="veh_pc_E4" />
    <trip depart="2740.00" from="435491726#15" id="veh274" to="129897418" type="veh_pc_E4" />
    <trip depart="2750.00" from="435343301#1" id="veh275" to="428046226#0" type="veh_pc_E4" />
    <trip depart="2760.00" from="129897454#1" id="veh276" to="435707014#5" type="veh_pc_E4" />
    <trip depart="2770.00" from="44364644#2" id="veh277" to="413976459#2" type="veh_pc_E5" />
    <trip depart="2780.00" from="151316320#5" id="veh278" to="75223322#0" type="veh_pc_E4" />
    <trip depart="2790.00" from="442309013#3" id="veh279" to="331470728#11" type="veh_pc_E6" />
    <trip depart="2800.00" from="370644951#2" id="veh280" to="336833691#1" type="veh_pc_E6" />
    <trip depart="2810.00" from="406644984#1" id="veh281" to="331470728#0" type="veh_pc_E5" />
    <trip depart="2820.00" from="44364644#2" id="veh282" to="442867200#1" type="veh_pc_E4" />
    <trip depart="2830.00" from="144953677#0" id="veh283" to="75036017" type="veh_pc_E6" />
    <trip depart="2840.00" from="430072204#2" id="veh284" to="442867200#2" type="veh_pc_E4" />
    <trip depart="2850.00" from="435491726#1" id="veh285" to="370644951#7" type="veh_pc_E5" />
    <trip depart="2860.00" from="435491726#21" id="veh286" to="75036027#0" type="veh_pc_E6" />
    <trip depart="2870.00" from="304442660#2" id="veh287" to="442451693" type="veh_pc_E4" />
    <trip depart="2880.00" from="410089534#7" id="veh288" to="401506730#5" type="veh_pc_E6" />
    <trip depart="2890.00" from="370644951#7" id="veh289" to="435491726#20" type="veh_pc_E6" />
    <trip depart="2900.00" from="304442660#1" id="veh290" to="44364644#1" type="veh_pc_E5" />
    <trip depart="2910.00" from="442867200#8" id="veh291" to="129897442#4" type="veh_pc_E6" />
    <trip depart="2920.00" from="618055289#3" id="veh292" to="299781215" type="veh_pc_E6" />
    <trip depart="2930.00" from="391958207#9" id="veh293" to="428030874#0" type="veh_pc_E4" />
    <trip depart="2940.00" from="344149309#0" id="veh294" to="-75036013#1" type="veh_pc_E5" />
    <trip depart="2950.00" from="44364644#3" id="veh295" to="279864770#2" type="veh_pc_E5" />
    <trip depart="2960.00" from="28707264#1" id="veh296" to="442334036#0" type="veh_pc_E5" />
    <trip depart="2970.00" from="331470728#0" id="veh297" to="618055289#2" type="veh_pc_E6" />
    <trip depart="2980.00" from="435393029#2" id="veh298" to="315199154#0" type="veh_pc_E6" />
    <trip depart="2990.00" from="-428073531#0" id="veh299" to="75036007#1" type="veh_pc_E4" />
    <trip depart="3000.00" from="129897442#1" id="veh300" to="435491726#13" type="veh_pc_E6" />
    <trip depart="3010.00" from="401506730#7" id="veh301" to="435707014#1" type="veh_pc_E4" />
    <trip depart="3020.00" from="435343301#1" id="veh302" to="430072721#3" type="veh_pc_E4" />
    <trip depart="3030.00" from="401506730#8" id="veh303" to="442317099#1" type="veh_pc_E5" />
    <trip depart="3050.00" from="435343301#1" id="veh305" to="319662804#7" type="veh_pc_E6" />
    <trip depart="3060.00" from="412495541#1" id="veh306" to="401506730#1" type="veh_pc_E5" />
    <trip depart="3070.00" from="410089534#4" id="veh307" to="370644951#14" type="veh_pc_E6" />
    <trip depart="3080.00" from="435491726#9" id="veh308" to="320898740" type="veh_pc_E6" />
    <trip depart="3090.00" from="435393029#2" id="veh309" to="304442660#2" type="veh_pc_E6" />
    <trip depart="3100.00" from="304437030#1" id="veh310" to="151316320#7" type="veh_pc_E4" />
    <trip depart="3110.00" from="279864770#4" id="veh311" to="151316320#7" type="veh_pc_E5" />
    <trip depart="3120.00" from="410089534#7" id="veh312" to="435707014#3" type="veh_pc_E5" />
    <trip depart="3130.00" from="279864770#2" id="veh313" to="28707280#0" type="veh_pc_E4" />
    <trip depart="3140.00" from="401506730#6" id="veh314" to="435491726#15" type="veh_pc_E4" />
    <trip depart="3150.00" from="75036032" id="veh315" to="410089534#0" type="veh_pc_E5" />
    <trip depart="3160.00" from="319662804#0" id="veh316" to="144953677#1" type="veh_pc_E6" />
    <trip depart="3180.00" from="279864770#1" id="veh318" to="-442309012#0" type="veh_pc_E6" />
    <trip depart="3190.00" from="410089534#6" id="veh319" to="304549060" type="veh_pc_E5" />
    <trip depart="3200.00" from="75036027#4" id="veh320" to="412296083#2" type="veh_pc_E4" />
    <trip depart="3210.00" from="435393029#1" id="veh321" to="172243635" type="veh_pc_E6" />
    <trip depart="3220.00" from="467318483#2" id="veh322" to="401506730#8" type="veh_pc_E4" />
    <trip depart="3230.00" from="4832866" id="veh323" to="412304785" type="veh_pc_E6" />
    <trip depart="3240.00" from="401506730#0" id="veh324" to="391958206#0" type="veh_pc_E4" />
    <trip depart="3250.00" from="279864770#2" id="veh325" to="118291788#1" type="veh_pc_E5" />
    <trip depart="3260.00" from="651186341#1" id="veh326" to="401506730#3" type="veh_pc_E6" />
    <trip depart="3270.00" from="442867200#2" id="veh327" to="35557450#1" type="veh_pc_E4" />
    <trip depart="3280.00" from="126587263#2" id="veh328" to="428046226#1" type="veh_pc_E4" />
    <trip depart="3300.00" from="412296576#1" id="veh330" to="319662804#7" type="veh_pc_E4" />
    <trip depart="3310.00" from="75243088#1" id="veh331" to="151316320#6" type="veh_pc_E4" />
    <trip depart="3320.00" from="435707014#5" id="veh332" to="413976463#0" type="veh_pc_E5" />
    <trip depart="3330.00" from="442334023" id="veh333" to="298367768#2" type="veh_pc_E6" />
    <trip depart="3340.00" from="410089534#0" id="veh334" to="391958207#3" type="veh_pc_E5" />
    <trip depart="3350.00" from="391958207#0" id="veh335" to="44364645#2" type="veh_pc_E5" />
    <trip depart="3360.00" from="75223322#3" id="veh336" to="319662804#7" type="veh_pc_E4" />