<?xml version="1.0" encoding="UTF-8"?>

<!-- generated on Wed Oct 16 11:16:43 2019 by Eclipse SUMO duarouter Version 1.2.0
<configuration xmlns:xsi="http://www.w3.org/2001/XMLSchema-instance" xsi:noNamespaceSchemaLocation="http://sumo.dlr.de/xsd/duarouterConfiguration.xsd">

    <input>
        <net-file value="osm.net.xml"/>
        <route-files value="osm.truck.trips.xml"/>
    </input>

    <output>
        <output-file value="routes.rou.xml"/>
        <alternatives-output value="routes.rou.alt.xml"/>
    </output>

</configuration>
-->

<routes xmlns:xsi="http://www.w3.org/2001/XMLSchema-instance" xsi:noNamespaceSchemaLocation="http://sumo.dlr.de/xsd/routes_file.xsd">
    <vType id="truck_truck_E3" vClass="truck" emissionClass="HBEFA3/LDV_G_EU3"/>
    <vehicle id="truck10" type="truck_truck_E3" depart="776.00">
        <route edges="44364379#2 44364379#3 172242987#0 -111924331#1 430077169#8"/>
    </vehicle>
    <vType id="truck_truck_E5" vClass="truck" emissionClass="HBEFA3/LDV_G_EU5"/>
    <vehicle id="truck9" type="truck_truck_E5" depart="1393.00">
        <route edges="44364379#4 435393029#1 435393029#2 172098498#2 410089534#0 410089534#3 410089534#4 410089534#6 410089534#7 654035438 331470728#8 331470728#9 129897427 -129897427"/>
    </vehicle>
    <vehicle id="truck5" type="truck_truck_E5" depart="3056.00">
        <route edges="279864811#0 75036010#0 75036010#1 -617934930 619019400#7 619019400#8 320898734#0 428030875#3 428030875#4 428030875#5 75223332 651186341#0 651186341#1 651186341#2 442469223#1 435343301#1 151316320#1 151316320#2 151316320#3 151316320#5 401506730#7"/>
    </vehicle>
    <vehicle id="truck7" type="truck_truck_E5" depart="3290.00">
        <route edges="430072204#0 410089530#2 651186341#1 651186341#2 442469224#1 442867200#1 442867200#2 172098498#2 410089534#0 410089534#3 410089534#4 410089534#6 410089534#7"/>
    </vehicle>
    <vehicle id="truck11" type="truck_truck_E5" depart="19782.00">
        <route edges="320898740 320898734#0 428030875#3 428030875#4 428030875#5 75223332 651186341#0 651186341#1 651186341#2 442469224#1 442867200#1 442867200#2 442867200#7 172243635 111948492 618315978#1 618315978#2 412495541#1 412495541#2 39413204#2 172244021#1"/>
    </vehicle>
    <vType id="truck_truck_E2" vClass="truck" emissionClass="HBEFA3/LDV_G_EU2"/>
    <vehicle id="truck4" type="truck_truck_E2" depart="23080.00">
        <route edges="35557450#3 331470728#13 129897454#1 412296575#1 412296575#2 435491726#1 435491726#5 435491726#9 442317099#1 442317099#2 -442309012#2 -442309012#1"/>
    </vehicle>
    <vType id="truck_truck_E6" vClass="truck" emissionClass="HBEFA3/LDV_G_EU6"/>
    <vehicle id="truck12" type="truck_truck_E6" depart="26383.00">
        <route edges="75036027#1 75036027#2 75036027#3 619019400#1 619019400#2 619019400#3 619019400#4 619019400#5 619019400#6 619019400#7 619019400#8 320898734#0 320898734#1"/>
    </vehicle>
    <vehicle id="truck8" type="truck_truck_E6" depart="28911.00">
        <route edges="279864813#0 413976463#0 75036032 619019400#1 619019400#2 619019400#3 619019400#4 619019400#5 619019400#6 619019400#7 619019400#8 320898734#0 428030875#3 428030875#4 428030875#5 75223332 651186341#0 651186341#1 651186341#2 442469224#1 442867200#1 442867200#2 442867200#7 172243635 111948492 618315978#1 618315978#2 298431255#1 129897442#5 412495543#0"/>
    </vehicle>
    <vType id="truck_truck_E4" vClass="truck" emissionClass="HBEFA3/LDV_G_EU4"/>
    <vehicle id="truck2" type="truck_truck_E4" depart="46969.00">
        <route edges="435491726#5 442469223#1 435343301#1 151316320#1 151316320#2 430072721#7"/>
    </vehicle>
    <vehicle id="truck3" type="truck_truck_E4" depart="56945.00">
        <route edges="619019400#2 619019400#3 619019400#4 619019400#5 619019400#6 619019400#7 619019400#8 320898734#0 320898734#1 284929204#0 284929204#1 284929204#2 120863177#0"/>
    </vehicle>
    <vehicle id="truck6" type="truck_truck_E6" depart="62636.00">
        <route edges="-442309012#0 651186341#1 651186341#2 442469224#1 442867200#1 442867200#2 172098498#2 410089534#0 410089534#3 410089534#4 410089534#6 410089534#7 410089534#8 410089534#9 129897418 299781215 319662804#8 355775773 279864770#0 279864770#1 279864770#2"/>
    </vehicle>
    <vehicle id="truck1" type="truck_truck_E5" depart="67510.00">
        <route edges="299781215 319662804#8 355775773 279864770#0 279864770#1 279864770#2 279864770#3 279864770#4 -479823503 35557265#0 35557265#1 35557265#2 35557265#3 428030875#2 320898734#1 284929209#0"/>
    </vehicle>
    <vehicle id="truck0" type="truck_truck_E5" depart="75855.00">
        <route edges="428057111 618315978#1 618315978#2 298431255#1 129897442#5 111925884#0 111925884#1 412296575#1 412296575#2 435491726#1 435491726#5 435491726#9 435491726#13 435491726#15 435491726#18 75223322#0 75223322#1 151316320#7 304437031 -437506344"/>
    </vehicle>
    <vehicle id="truck20" type="truck_truck_E5" depart="17112.00">
        <route edges="430410163#6 44364644#1 44364644#2 44364644#3 129897442#5 111925884#0 111925884#1 412296575#1 412296575#2 172098498#2 410089534#0 410089534#3 410089534#4 410089534#6 410089534#7 654035438 -654035438"/>
    </vehicle>
    <vehicle id="truck18" type="truck_truck_E6" depart="30715.00">
        <route edges="44364645#4 410089534#7 410089534#8 410089534#9 129897418 299781215 319662804#8 355775773 279864770#0 279864770#1 279864770#2 279864770#3 279864770#4 -479823503 35557265#0 35557265#1 35557265#2 35557265#3 428030875#2 428030875#3 428030875#4"/>
    </vehicle>
    <vehicle id="truck16" type="truck_truck_E5" depart="39896.00">
        <route edges="410089534#0 410089534#3 410089534#4 120863177#4 410089531#1 410089531#2 435491726#1 435491726#5 435491726#9 435491726#13 435491726#15 435491726#18 435491726#20 435491726#21 435491726#22 319788732#1 319788732#2 75037344#1"/>
    </vehicle>
    <vehicle id="truck19" type="truck_truck_E2" depart="45167.00">
        <route edges="618055291#2 618055291#3 618055291#4 619019400#8 320898734#0 428030875#3 428030875#4 428030875#5 75223332 651186341#0 651186341#1 651186341#2 442469224#1 442867200#1 442867200#2 442867200#7 172243635 111948492 618315978#1 618315978#2 412495541#1"/>
    </vehicle>
    <vehicle id="truck17" type="truck_truck_E6" depart="45521.00">
        <route edges="344149309#0 344149309#3 401506730#0 401506730#1 401506730#2 401506730#3 401506730#4 401506730#5 401506730#6 401506730#7 401506730#8 618118083#1 618118082#2 412307193#0 412307193#1 442469224#1 442867200#1 442867200#2 442867200#7 442867200#8 412296083#1"/>
    </vehicle>
    <vehicle id="truck15" type="truck_truck_E6" depart="58709.00">
        <route edges="44364379#3 44364379#4 435393029#1 435393029#2 435491726#1 435491726#5 435491726#9 435491726#13 435491726#15"/>
    </vehicle>
    <vehicle id="truck14" type="truck_truck_E5" depart="82753.00">
        <route edges="618055289#1 428035708 391958207#6 391958207#7 391958207#8 391958207#9 618055290 428046226#0 428046226#1 428046226#2 428046226#3 428046226#4 391958206#0 413976463#0 413976463#2"/>
    </vehicle>
    <vehicle id="truck25" type="truck_truck_E5" depart="25396.00">
        <route edges="336833691#0 563946130 284929204#1 284929204#2 129897450 299781216 355775773 279864770#0 279864770#1 279864770#2 279864770#3 279864770#4 -479823503 35557265#0 35557265#1 35557265#2 35557265#3 35557265#4 35557265#5 279864811#0 75036010#0 75036010#1 -617934930 619019400#7 619019400#8 279864789"/>
    </vehicle>
    <vehicle id="truck22" type="truck_truck_E6" depart="28250.00">
        <route edges="111948492 618315978#1 618315978#2 298431255#1 129897442#5 111925884#0 111925884#1 412296575#1 412296575#2 435491726#1 435491726#5 435491726#9 435491726#13 435491726#15 435491726#18 75223322#0 75223322#1 151316320#7 28707264#1"/>
    </vehicle>
    <vehicle id="truck23" type="truck_truck_E6" depart="33262.00">
        <route edges="126587263#2 406644982#0 406644982#1 151316320#1 151316320#2 151316320#3 151316320#5 151316320#6 75223322#2 75223322#3 304437030#0 304437030#1 304437030#2"/>
    </vehicle>
    <vehicle id="truck24" type="truck_truck_E6" depart="66448.00">
        <route edges="428046226#3 75036027#2 413976459#1 413976459#2 413976459#3 618055289#1 618055289#2 618055289#3 336833691#0"/>
    </vehicle>
    <vehicle id="truck21" type="truck_truck_E5" depart="85695.00">
        <route edges="284929204#2 120863177#0 120863177#1 120863177#2 120863177#4 410089531#1 410089531#2 435491726#1 435491726#5 435491726#9 435491726#13 435491726#15 435491726#18 75223322#0 75223322#1 75223322#2 75223322#3 304437030#0 304437030#1 304437030#2 304437030#3 304437030#4 304437030#5 304442660#0"/>
    </vehicle>
    <vehicle id="truck505" type="truck_truck_E6" depart="155.00">
        <route edges="430072721#4 430072721#5 430072721#6 430072721#7 430072721#8 618118685#1 618118686#2 435491726#13 435491726#15 435491726#18 435491726#20 435491726#21 435491726#22 75036027#0 75036027#1 428046226#4"/>
    </vehicle>
    <vehicle id="truck667" type="truck_truck_E5" depart="554.00">
        <route edges="430077168#0 430077169#0 430077169#1 430072721#8 618118685#1 618118686#2 412307193#0 412307193#1 442469224#1 442867200#1 442867200#2 442867200#7 172243635 412495542#0 412495542#1 279043423#0 28707280#1"/>
    </vehicle>
    <vehicle id="truck157" type="truck_truck_E5" depart="556.00">
        <route edges="442334036#1 435707014#4 435707014#5 618118083#1 618118082#2 412307193#0 412307193#1 442469224#1 442867200#1 442867200#2 442867200#7 172243635 111948492 618315978#1"/>
    </vehicle>
    <vehicle id="truck437" type="truck_truck_E3" depart="609.00">
        <route edges="618055292#1 618055291#0 413976459#3 618055289#1 618055289#2 428030875#5"/>
    </vehicle>
    <vehicle id="truck819" type="truck_truck_E5" depart="642.00">
        <route edges="319662804#5 319662804#6 319662804#7 319662804#8 355775773 279864770#0 279864770#1 279864770#2 279864770#3 279864770#4 -479823503 35557265#0 35557265#1 35557265#2 35557265#3 428030875#2 428030875#3 428030875#4 428030875#5 391958207#5"/>
    </vehicle>
    <vehicle id="truck332" type="truck_truck_E6" depart="661.00">
        <route edges="442309013#3 442309013#4 618055292#0 618055292#1 618055291#0 618055291#1 618055291#2 618055291#3 618055291#4 619019400#8 320898734#0 320898734#1 284929204#0 284929204#1 284929204#2 331470728#6 331470728#8 331470728#9 428030874#0"/>
    </vehicle>
    <vehicle id="truck304" type="truck_truck_E5" depart="674.00">
        <route edges="120863177#1 44364645#7 284929204#2"/>
    </vehicle>
    <vehicle id="truck592" type="truck_truck_E5" depart="746.00">
        <route edges="-563946130 563946130 284929204#1 284929204#2 129897450 299781216 355775773 279864770#0 279864770#1 279864770#2 279864770#3 279864770#4 -479823503 35557265#0 35557265#1 35557265#2 35557265#3 428030875#2 428030875#3 428030875#4 428030875#5 391958207#5 -428035708"/>
    </vehicle>
    <vehicle id="truck627" type="truck_truck_E6" depart="1021.00">
        <route edges="619019400#4 619019400#5 619019400#6 619019400#7 619019400#8 320898734#0 428030875#3 428030875#4 428030875#5 75223332 651186341#0 651186341#1 651186341#2 442469223#1 435343301#1 144953677#0 144953677#1 144953677#2 370644951#5 370644951#6 370644951#7"/>
    </vehicle>
    <vehicle id="truck354" type="truck_truck_E6" depart="1024.00">
        <route edges="304437030#4 304437030#5 304442660#0 304442660#1 304442660#2 24252801#2 24252801#3 24252801#4 344149309#3 401506730#0 401506730#1 401506730#2 401506730#3 401506730#4 401506730#5 401506730#6 401506730#7 430077168#0 430077169#0 430077169#1 430077169#2 435343301#1 144953677#0"/>
    </vehicle>
    <vehicle id="truck564" type="truck_truck_E6" depart="1386.00">
        <route edges="298431255#1 129897442#5 111925884#0 111925884#1 412296575#1 412296575#2 435491726#1 435491726#5 435491726#9 435491726#13 435491726#15 435491726#18 75223322#0 75223322#1 75223322#2 75223322#3 304437030#0 304437030#1 304437030#2 304437030#3 304437030#4 304437030#5 304442660#0 304442660#1 304442660#2 24252801#2 24252801#3 24252801#4 24252801#5"/>
    </vehicle>
    <vehicle id="truck390" type="truck_truck_E5" depart="1470.00">
        <route edges="44364645#7 284929204#2 120863177#0 120863177#1 120863177#2 120863177#4 410089531#1 410089531#2 435491726#1 435491726#5 435491726#9 435491726#13 435491726#15 435491726#18 75223322#0 75223322#1 75223322#2 75223322#3 304437030#0 304437030#1 304437030#2 304437030#3 304437030#4 304437030#5 304442660#0 304442660#1 304442660#2 24252801#2 24252801#3 24252801#4 344149309#3 401506730#0 401506730#1 401506730#2 401506730#3 401506730#4"/>
    </vehicle>
    <vehicle id="truck499" type="truck_truck_E4" depart="1508.00">
        <route edges="75036020 75036010#2 320898743#1 320898743#2 428032853#0 428032853#1 428032853#2 442334036#0 442334036#1 435707014#4 435707014#5 75223312#1 618055292#0 618055292#1 618055291#0"/>
    </vehicle>
    <vehicle id="truck412" type="truck_truck_E5" depart="1740.00">
        <route edges="75223322#2 75223322#3 304437030#0 304437030#1 304437030#2 304437030#3 304437030#4 304437030#5 304442660#0 304442660#1 304442660#2 24252801#2 24252801#3 24252801#4 344149309#3 401506730#0 401506730#1 401506730#2 401506730#3"/>
    </vehicle>
    <vehicle id="truck246" type="truck_truck_E5" depart="1818.00">
        <route edges="370644951#10 401506730#5 401506730#6 401506730#7 401506730#8 618118083#1 618118082#2 442317099#1 442317099#2 -442309012#2 -442309012#1"/>
    </vehicle>
    <vehicle id="truck652" type="truck_truck_E5" depart="1904.00">
        <route edges="430077169#4 406644981#1 430072204#0 410089530#2"/>
    </vehicle>
    <vehicle id="truck647" type="truck_truck_E6" depart="2013.00">
        <route edges="35557263#3 319515359#2 319515359#3 35557265#0 35557265#1 35557265#2 35557265#3 35557265#4 35557265#5 279864811#0 75036010#0 75036010#1 75036010#2 320898743#1 320898743#2 428032853#0 428032853#1 428032853#2 428046226#1 428046226#2 428046226#3 75036027#2 413976459#1"/>
    </vehicle>
    <vehicle id="truck286" type="truck_truck_E4" depart="2055.00">
        <route edges="435491726#22 75036027#0 75036027#1 75036027#2 75036027#3"/>
    </vehicle>
    <vehicle id="truck573" type="truck_truck_E5" depart="2065.00">
        <route edges="442334023 627176990#0 627176990#1 -428073531#1 -428073531#0 442334036#1 435707014#4 435707014#5 618118083#1 618118082#2 412307193#0 412307193#1 442469224#1 442867200#1 442867200#2 172098498#2 410089534#0 35557450#1 412296576#2"/>
    </vehicle>
    <vehicle id="truck451" type="truck_truck_E5" depart="2124.00">
        <route edges="75223322#1 151316320#7 28707264#1 435365881 435707014#1 435707014#3 435707014#4 435707014#5 618118083#1 618118082#2 412307193#0 412307193#1 442469224#1 430072204#0 430072204#1 430072204#2"/>
    </vehicle>
    <vehicle id="truck504" type="truck_truck_E6" depart="2149.00">
        <route edges="618055289#1 428035708 391958207#6 391958207#7 391958207#8 391958207#9 618055290 428046226#0 428046226#1 428046226#2 428046226#3 428046226#4 391958206#0"/>
    </vehicle>
    <vehicle id="truck278" type="truck_truck_E5" depart="2501.00">
        <route edges="129897442#5 111925884#0 111925884#1 412296575#1 412296575#2 435491726#1 435491726#5 435491726#9 435491726#13 435491726#15 435491726#18 75223322#0 75223322#1 75223322#2 75223322#3"/>
    </vehicle>
    <vehicle id="truck208" type="truck_truck_E5" depart="2720.00">
        <route edges="28798001#0 435393029#1 435393029#2 435491726#1 435491726#5 435491726#9 442317099#1 442317099#2 442317100 391958207#7 391958207#8 391958207#9"/>
    </vehicle>
    <vehicle id="truck47" type="truck_truck_E5" depart="2785.00">
        <route edges="-75036013#2 75036013#2 428046226#3 75036027#2 75036027#3 619019400#1 619019400#2 619019400#3 619019400#4 619019400#5 619019400#6 619019400#7 619019400#8 320898734#0 320898734#1 284929209#0 284929209#1 284929209#2 35557263#2"/>
    </vehicle>
    <vehicle id="truck697" type="truck_truck_E5" depart="2882.00">
        <route edges="467318483#2 618118082#2 412307193#0 412307193#1 442469224#1 442867200#1 442867200#2 172098498#2 410089534#0 410089534#3 410089534#4 410089534#6 410089534#7 410089534#8"/>
    </vehicle>
    <vehicle id="truck657" type="truck_truck_E4" depart="2890.00">
        <route edges="284929204#1 284929204#2 120863177#0 120863177#1 120863177#2 120863177#4 410089531#1 410089531#2 435491726#1 435491726#5 442469223#1 435343301#1 151316320#1 151316320#2 151316320#3"/>
    </vehicle>
    <vehicle id="truck826" type="truck_truck_E5" depart="3192.00">
        <route edges="442309013#2 442309013#3 442309013#4 428073529 442334036#1 75223322#0 75223322#1 75223322#2 75223322#3 304437030#0 304437030#1 304437030#2 304437030#3 304437030#4 304437030#5 304442660#0 304442660#1 304442660#2 24252801#2 24252801#3 24252801#4 344149309#3 401506730#0 401506730#1 401506730#2 401506730#3 401506730#4"/>
    </vehicle>
    <vehicle id="truck201" type="truck_truck_E6" depart="3310.00">
        <route edges="391958207#6 391958207#7 391958207#8 391958207#9 618055290 428046226#0 428046226#1 428046226#2 428046226#3 75036027#2 75036027#3 619019400#1 619019400#2 619019400#3 619019400#4 619019400#5 619019400#6"/>
    </vehicle>
    <vehicle id="truck55" type="truck_truck_E5" depart="3502.00">
        <route edges="618118083#1 618118082#2 412307193#0 412307193#1 442469224#1 442867200#1 442867200#2 442867200#7 172243635 111948492 618315978#1 618315978#2 298431255#1 298431255#2 298431255#3"/>
    </vehicle>
    <vehicle id="truck724" type="truck_truck_E5" depart="3796.00">
        <route edges="391958206#0 413976459#0 413976459#1 428032853#2 442334036#0 442334036#1 75223322#0 75223322#1 75223322#2 75223322#3 304437030#0 304437030#1 304437030#2 304437030#3 304437030#4 304437030#5 304442660#0 304442660#1"/>
    </vehicle>
    <vehicle id="truck682" type="truck_truck_E6" depart="3973.00">
        <route edges="442309013#2 442309013#3 442309013#4 428073529 442334036#1 75223322#0 75223322#1 75223322#2 75223322#3 304437030#0"/>
    </vehicle>
    <vehicle id="truck110" type="truck_truck_E5" depart="4020.00">
        <route edges="75036032 619019400#1 619019400#2 619019400#3 619019400#4 619019400#5 619019400#6 619019400#7 619019400#8 320898734#0 428030875#3 428030875#4 428030875#5 75223332 651186341#0 651186341#1 651186341#2 442469224#1 442867200#1 442867200#2 442867200#7 172243635 111948492 618315978#1 618315978#2 412495541#1 412495541#2"/>
    </vehicle>
    <vehicle id="truck568" type="truck_truck_E6" depart="4060.00">
        <route edges="35557265#1 35557265#2 35557265#3 428030875#2 428030875#3 428030875#4 428030875#5 75223332 651186341#0 651186341#1 651186341#2 442469223#1 435343301#1 151316320#1 151316320#2 151316320#3 151316320#5"/>
    </vehicle>
    <vehicle id="truck261" type="truck_truck_E4" depart="4127.00">
        <route edges="430072204#0 410089530#2 442309012#0 442309012#1 442309012#2 442309013#0 442309013#1 442309013#2 442309013#3 442309013#4 618055292#0 618055292#1 428046226#0 442334036#0"/>
    </vehicle>
    <vehicle id="truck671" type="truck_truck_E5" depart="4148.00">
        <route edges="44364379#4 435393029#1 435393029#2 435491726#1 430072204#0 430072204#1 430072204#2 391958207#1 391958207#2 391958207#3 391958207#5 391958207#6"/>
    </vehicle>
    <vehicle id="truck407" type="truck_truck_E6" depart="4403.00">
        <route edges="412307193#1 435491726#9 435491726#13 435491726#15 435491726#18 75223322#0 75223322#1 151316320#7 28707264#1"/>
    </vehicle>
    <vehicle id="truck166" type="truck_truck_E6" depart="4710.00">
        <route edges="442451694 391958206#0 413976463#0 75036032 619019400#1 619019400#2 619019400#3 619019400#4 619019400#5 619019400#6 619019400#7 619019400#8 320898734#0 428030875#3 428030875#4 428030875#5 75223332 651186341#0 651186341#1 651186341#2 442469224#1 442867200#1 442867200#2 442867200#7 172243635 111948492 618315978#1 618315978#2 298431255#1 298431255#2 298431255#3 129897442#1 129897442#2"/>
    </vehicle>
    <vehicle id="truck444" type="truck_truck_E5" depart="4804.00">
        <route edges="320898743#1 320898743#2 619019400#3 619019400#4 619019400#5 619019400#6 619019400#7 619019400#8 320898734#0 428030875#3 428030875#4 428030875#5 75223332 651186341#0 651186341#1 651186341#2 442469224#1 442867200#1 442867200#2 442867200#7 172243635 412495542#0 412495542#1"/>
    </vehicle>
    <vehicle id="truck370" type="truck_truck_E5" depart="4842.00">
        <route edges="430072721#7 430072721#8 618118685#1 618118686#2 435491726#13 435491726#15 75223312#1 618055292#0 618055292#1 618055291#0"/>
    </vehicle>
    <vType id="truck_truck_E1" vClass="truck" emissionClass="HBEFA3/LDV_G_EU1"/>
    <vehicle id="truck294" type="truck_truck_E1" depart="4884.00">
        <route edges="344149309#0 344149309#3 401506730#0 401506730#1 401506730#2 401506730#3 401506730#4 401506730#5 401506730#6 401506730#7 401506730#8 618118083#1 618118082#2 442317099#1 442317099#2 -442309012#2 -442309012#1 -442309012#0"/>
    </vehicle>
    <vehicle id="truck746" type="truck_truck_E5" depart="4998.00">
        <route edges="75243088#5 401506730#0 401506730#1 401506730#2 401506730#3 401506730#4 401506730#5 401506730#6 151316320#6 75223322#2 75223322#3 304437030#0"/>
    </vehicle>
    <vehicle id="truck751" type="truck_truck_E6" depart="5042.00">
        <route edges="151316320#1 151316320#2 430072721#7 430072721#8 618118685#1 618118686#2 412307193#0 412307193#1 442469224#1 442867200#1 442867200#2 172098498#2 410089534#0 35557450#1 35557450#2 44364645#3 428030874#1"/>
    </vehicle>
    <vehicle id="truck535" type="truck_truck_E6" depart="5356.00">
        <route edges="410089531#1 410089531#2 435491726#1 435491726#5 435491726#9 435491726#13 435491726#15 435491726#18 435491726#20 435491726#21 435491726#22 319788732#1 319788732#2 75037344#1 442451693 442451694 391958206#0"/>
    </vehicle>
    <vehicle id="truck306" type="truck_truck_E4" depart="5374.00">
        <route edges="412495542#1 279043423#0 279043423#1 430410163#6 44364644#1 44364644#2 44364644#3 129897442#5 111925884#0 111925884#1 412296575#1 412296575#2 435491726#1 435491726#5 435491726#9 442317099#1 442317099#2 442317100 391958207#7 391958207#8"/>
    </vehicle>
    <vehicle id="truck287" type="truck_truck_E4" depart="5462.00">
        <route edges="298431255#2 298431255#3 129897442#1 129897442#2 129897442#3 129897442#4 129897442#5 111925884#0 111925884#1 412296575#1 412296575#2 44364379#2"/>
    </vehicle>
    <vehicle id="truck374" type="truck_truck_E6" depart="5759.00">
        <route edges="370644951#9 370644951#10 401506730#5 401506730#6 401506730#7 401506730#8 618118083#1 618118082#2 412307193#0 412307193#1 442469224#1 442867200#1 442867200#2 172098498#2 410089534#0 410089534#3 410089534#4 410089534#6 410089534#7 654035438 331470728#8 331470728#9 129897427 319662804#2 319662804#3 319662804#5"/>
    </vehicle>
    <vehicle id="truck750" type="truck_truck_E5" depart="5782.00">
        <route edges="430077169#0 430077169#1 430072721#8 618118685#1 618118686#2 435491726#13 435491726#15 435491726#18 435491726#20 435491726#21 435491726#22 75036027#0 75036027#1 75036027#2 75036027#3 619019400#1 619019400#2 619019400#3 619019400#4 619019400#5 619019400#6 75036020"/>
    </vehicle>
    <vehicle id="truck99" type="truck_truck_E6" depart="5868.00">
        <route edges="75243088#5 401506730#0 401506730#1 401506730#2 401506730#3 401506730#4 401506730#5 401506730#6 401506730#7 401506730#8 618118083#1 618118082#2 442317099#1 442317099#2 442317100 391958207#7 24252780 467318483#0"/>
    </vehicle>
    <vehicle id="truck692" type="truck_truck_E5" depart="6040.00">
        <route edges="144953677#1 144953677#2 370644951#5 370644951#6 370644951#7 370644951#9 370644951#10 401506730#5 401506730#6 151316320#6 151316320#7 304437031"/>
    </vehicle>
    <vehicle id="truck629" type="truck_truck_E6" depart="6175.00">
        <route edges="319662804#6 319662804#7 319662804#8 355775773 279864770#0 279864770#1 279864770#2 279864770#3 279864770#4 -479823503 35557265#0 35557265#1 35557265#2 35557265#3 428030875#2 428030875#3 428030875#4 428030875#5 391958207#5 391958207#6 391958207#7 391958207#8 391958207#9"/>
    </vehicle>
    <vehicle id="truck566" type="truck_truck_E6" depart="6298.00">
        <route edges="320898740 320898734#0 320898734#1 284929204#0 284929204#1 284929204#2 331470728#6 331470728#8 331470728#9 129897427 -129897427"/>
    </vehicle>
    <vehicle id="truck173" type="truck_truck_E6" depart="6360.00">
        <route edges="75036032 619019400#1 619019400#2 428032853#0 428032853#1 428032853#2 442334036#0 442334036#1 75223322#0 75223322#1 75223322#2 75223322#3 304437030#0 304437030#1 304437030#2"/>
    </vehicle>
    <vehicle id="truck270" type="truck_truck_E4" depart="6408.00">
        <route edges="44364644#3 129897442#5 111925884#0 111925884#1 412296575#1 412296575#2 435491726#1 435491726#5 435491726#9 435491726#13 435491726#15 435491726#18 435491726#20 435491726#21 435491726#22 75036027#0 75036027#1 75036027#2 75036027#3"/>
    </vehicle>
    <vehicle id="truck805" type="truck_truck_E6" depart="6435.00">
        <route edges="428073529 442334036#1 435707014#4 435707014#5 618118083#1 618118082#2 412307193#0 412307193#1 442469224#1 442867200#1 442867200#2 442867200#7 172243635 111948492 618315978#1 618315978#2 412495541#1"/>
    </vehicle>
    <vehicle id="truck488" type="truck_truck_E5" depart="6466.00">
        <route edges="144953677#2 370644951#5 430072721#0 430072721#3 430072721#4 430072721#5 430072721#6 430072721#7 430072721#8 618118685#1 618118686#2 435491726#13 435491726#15 75223312#1 618055292#0 618055292#1 618055291#0 618055291#1 618055291#2 618055291#3 618055291#4 619019400#8 279864789 279864811#0 75036010#0 75036010#1 75036010#2 320898743#1 75036014#0"/>
    </vehicle>
    <vehicle id="truck151" type="truck_truck_E5" depart="6534.00">
        <route edges="467318483#0 467318483#2 618118082#2 412307193#0 412307193#1 442469224#1 442867200#1 442867200#2 442867200#7 172243635 111948492 618315978#1 618315978#2 412495541#1 412495541#2 412495541#3"/>
    </vehicle>
    <vehicle id="truck52" type="truck_truck_E4" depart="6539.00">
        <route edges="298431255#1 129897442#5 111925884#0 111925884#1 412296575#1 412296575#2 435491726#1 435491726#5 435491726#9 435491726#13 435491726#15 435491726#18 435491726#20 435491726#21 75036013#0 75036013#1 75036013#2 428046226#3"/>
    </vehicle>
    <vehicle id="truck40" type="truck_truck_E5" depart="6625.00">
        <route edges="412296575#2 442867200#7 172243635 111948492 618315978#1 618315978#2 298431255#1 298431255#2 298431255#3"/>
    </vehicle>
    <vehicle id="truck602" type="truck_truck_E5" depart="6871.00">
        <route edges="35557264#1 284929209#2 35557263#2 35557263#3 319515359#2 319515359#3 331470728#0 331470728#1 331470728#6 331470728#8 331470728#9 129897427 319662804#2"/>
    </vehicle>
    <vehicle id="truck663" type="truck_truck_E6" depart="6982.00">
        <route edges="336833695#1 284929209#0 35557265#2 35557265#3 428030875#2 428030875#3 428030875#4 428030875#5 391958207#5 391958207#6 391958207#7 24252780"/>
    </vehicle>
    <vehicle id="truck271" type="truck_truck_E6" depart="7007.00">
        <route edges="129897442#0 129897442#1 129897442#2 129897442#3 129897442#4 129897442#5 111925884#0 111925884#1 412296575#1 412296575#2 435491726#1 435491726#5 435491726#9 435491726#13 435491726#15 435491726#18 75223322#0 75223322#1 151316320#7 304437031 -437506344"/>
    </vehicle>
    <vehicle id="truck426" type="truck_truck_E5" depart="7062.00">
        <route edges="-75036014#1 -75036014#0 320898743#2 428032853#0 428032853#1 413976459#2 413976459#3 618055289#1 428035708"/>
    </vehicle>
    <vehicle id="truck677" type="truck_truck_E5" depart="7260.00">
        <route edges="442867200#7 442867200#8 412296575#1 412296575#2 435491726#1 435491726#5 442469223#1 435343301#1 151316320#1 151316320#2 151316320#3"/>
    </vehicle>
    <vehicle id="truck283" type="truck_truck_E4" depart="7409.00">
        <route edges="129897427 -129897427 428030874#0 428030874#1 120863177#4 410089531#1 410089531#2 435491726#1 435491726#5 435491726#9 435491726#13 435491726#15 435491726#18 435491726#20 435491726#21 435491726#22 75036027#0 75036027#1"/>
    </vehicle>
    <vehicle id="truck710" type="truck_truck_E6" depart="7423.00">
        <route edges="410089530#1 410089530#2 651186341#1 651186341#2 435491726#9 435491726#13 435491726#15 435491726#18 75223322#0 24252788#1 401506730#8"/>
    </vehicle>
    <vehicle id="truck277" type="truck_truck_E4" depart="7607.00">
        <route edges="618055289#2 428030875#5 75223332 651186341#0 651186341#1 651186341#2 435491726#9 435491726#13 435491726#15 435491726#18 435491726#20 435491726#21 435491726#22 319788732#1 319788732#2 75037344#1 442451693 442451694 391958206#0 413976463#0"/>
    </vehicle>
    <vehicle id="truck532" type="truck_truck_E2" depart="7683.00">
        <route edges="-75036014#0 320898743#2 428032853#0 428032853#1 428032853#2 442334036#0 442334036#1 75223322#0 75223322#1 75223322#2 75223322#3 304437030#0 304437030#1"/>
    </vehicle>
    <vehicle id="truck464" type="truck_truck_E5" depart="7810.00">
        <route edges="435491726#22 75036027#0 75036027#1 75036027#2 75036027#3 619019400#1 619019400#2 619019400#3 619019400#4 619019400#5 619019400#6 619019400#7 619019400#8 320898734#0 320898734#1 284929204#0 284929204#1 284929204#2 120863177#0 120863177#1"/>
    </vehicle>
    <vehicle id="truck122" type="truck_truck_E5" depart="7940.00">
        <route edges="279864770#1 279864770#2 279864770#3 279864770#4 -479823503 331470728#0 331470728#1 120863177#0 120863177#1 120863177#2 120863177#4 410089531#1 410089531#2 44364379#2 44364379#3 44364379#4 435393028#1"/>
    </vehicle>
    <vehicle id="truck126" type="truck_truck_E5" depart="7977.00">
        <route edges="111924331#1 -172242987#0 44364379#4 435393029#1 435393029#2 435491726#1 430072204#0 430072204#1 430072204#2 391958207#1"/>
    </vehicle>